%nprocshared=20
%mem=5GB
#p m062x/6-311+g(2df,2p) opt=(calcfc,verytight,gdiis,maxcycles=900) freq iop(7/33=1,2/16=3) 

Gaussian input prepared by ASE

0 2
O                -1.3101339720       -1.0044522331        1.3110620660
C                -1.2172748833       -1.4755227606       -1.0697973280
C                 0.1827904297       -1.9866648973       -0.8922367314
C                -1.7120617130       -0.5994546061        0.0554570751
C                 1.0727798419       -1.1154360094       -0.0761966950
H                -1.9048813870       -2.3497582274       -1.1931690209
H                -1.2847895540       -0.9113066458       -2.0089029264
H                 0.6384684155       -2.1379280501       -1.8942180695
H                 0.1642529254       -2.9938889564       -0.4417701891
H                -2.8301435661       -0.5812929703        0.0501830892
H                -1.3784333150        0.4509952706       -0.1318637155
H                 2.0721263986       -1.4911586107        0.1572872582
H                 0.9883000900       -0.0306722184       -0.1761546317
H                -0.3354753747       -1.1801768216        1.2622804341



