%nprocshared=20
%mem=5GB
#p m062x/6-311+g(2df,2p) opt=(calcfc,verytight,gdiis,maxcycles=900) freq iop(7/33=1,2/16=3) 

Gaussian input prepared by ASE

0 2
O                -1.4527870000       -0.9887280000       -0.0919500000
C                -0.0561600000        1.0158790000       -0.3679910000
C                 1.2640520000        0.5206050000        0.2315830000
C                -1.2872100000        0.3709660000        0.2546560000
C                 1.5749350000       -0.9034660000       -0.0685920000
H                -0.1264610000        2.0963980000       -0.2256620000
H                -0.0686000000        0.8294020000       -1.4447320000
H                 1.2562920000        0.6820620000        1.3130410000
H                 2.0755930000        1.1539100000       -0.1538900000
H                -2.1858910000        0.8753460000       -0.0991520000
H                -1.2518470000        0.4903280000        1.3448010000
H                 2.2099890000       -1.4801440000        0.5873990000
H                 1.4084610000       -1.2870510000       -1.0661140000
H                -0.6689430000       -1.4743340000        0.1819730000



