%nprocshared=20
%mem=5GB
#p m062x/6-311+g(2df,2p) opt=(calcfc,verytight,gdiis,maxcycles=900) freq iop(7/33=1,2/16=3) 

Gaussian input prepared by ASE

0 2
O                -1.6493562997        1.0146273870       -0.2797968748
C                -1.0950442745       -1.1983442410       -1.1533810499
C                -1.0123068618       -0.5446312012       -2.5020065398
C                -1.1739290512       -0.2459807290        0.0150742651
C                -2.2667438182        0.1442172924       -2.9130028238
H                -0.2015148015       -1.8580676563       -1.0167024995
H                -1.9631628931       -1.8699092890       -1.1396759267
H                -0.7551392340       -1.3212834823       -3.2537815164
H                -0.1691861726        0.1667540059       -2.5310348115
H                -0.1604712023       -0.1471913218        0.4772522953
H                -1.8198687285       -0.6964640509        0.8085908937
H                -2.2615328335        0.7243153490       -3.8391965726
H                -3.2249574707       -0.2977572160       -2.6295843522
H                -1.8873076760        1.0369123710       -1.2421381250



