#p m062x/6-311+g(2df,2p) opt=(calcfc,verytight,gdiis,maxcycles=900) freq iop(7/33=1,2/16=3) 

Gaussian input prepared by ASE

0 2
O                 0.5402000000        0.0624000000       -0.9241000000
C                -0.6551000000        0.6244000000       -0.5299000000
C                 1.3899000000       -0.2720000000        0.1051000000
C                -1.5881001649       -0.3142120721        0.1692654170
H                -1.1751762585        0.9134649892       -1.4817665544
H                -0.5586913306        1.5576059848        0.0394343204
H                 2.3074358991       -0.7109390837       -0.3628208638
H                 1.6946724425        0.5827829289        0.7412138914
H                 0.9906925372       -1.0522995105        0.7866289689
H                -1.5988373628       -1.3290199722       -0.2460647269
H                -1.5857394199       -0.2538154610        1.2618387126



