%nprocshared=20
%mem=5GB
#p m062x/6-311+g(2df,2p) opt=(calcfc,verytight,gdiis,maxcycles=900) freq iop(7/33=1,2/16=3) 

Gaussian input prepared by ASE

0 2
O                 0.6886320956       -0.7701451832        0.6534240915
C                -0.7057425733       -0.7653669043        0.2155081585
C                 1.3331256266        0.4292275246        0.1480443964
C                -1.4070546093       -1.9840837676        0.6093316814
H                -1.2211920243        0.1594523619        0.6530438066
H                -0.7412502878       -0.5993136689       -0.9096414383
H                 0.8135757461        1.3502042831        0.5357303108
H                 2.3921971486        0.4151710974        0.5051536989
H                 1.3137480557        0.4457984880       -0.9781390454
H                -1.0098423407       -2.6022286544        1.4429738154
H                -2.4986644425       -2.0573115010        0.4103592640



