%nprocshared=20
%mem=5GB
#p m062x/6-311+g(2df,2p) opt=(calcfc,verytight,gdiis,maxcycles=900) freq iop(7/33=1,2/16=3) 

Gaussian input prepared by ASE

0 2
O                -2.6799355865       -0.8944384513        1.0027145373
C                 0.9093383244       -0.6404403393        0.0179192164
C                -0.5197477984       -1.1223107872       -0.0569044661
C                 1.0225423464        0.8464533614        0.2203476608
C                -1.3114610999       -0.7508299647        1.2113763792
H                 1.4365738726       -0.9308081467       -0.9306167792
H                 1.4389230947       -1.1758260881        0.8501617066
H                -0.5548249971       -2.2361443918       -0.1852741835
H                -1.0362169859       -0.6685909148       -0.9410027859
H                 2.0538085269        1.1347867751        0.5455781161
H                 0.7859250117        1.3943376839       -0.7263245524
H                 0.2878601154        1.1769498533        1.0074071535
H                -0.9496978910       -1.3938385139        2.0744294251
H                -1.0501127687        0.3450339021        1.4234982864



