#p m062x/6-311+g(2df,2p) opt=(calcfc,verytight,gdiis,maxcycles=900) freq iop(7/33=1,2/16=3) 

Gaussian input prepared by ASE

0 2
O                -0.6944000000        0.6034000000       -0.7996000000
C                 1.5132476457        0.4551404195       -1.7814324548
C                -1.5453000000        0.1746000000        0.2037000000
C                 0.4356000000       -0.1721000000       -0.9449000000
H                 1.4185541322        0.2094227160       -2.8641715548
H                 1.5569441846        1.5513249173       -1.7165181335
H                 2.4865868390        0.0662105875       -1.3880625774
H                -2.0953000000       -0.7444000000       -0.0547000000
H                -2.2347000000        1.0261000000        0.4349000000
H                -0.9324000000       -0.0284000000        1.1033000000
H                 0.7916823269       -0.6525740247       -0.0282815854



