%nprocshared=20
%mem=5GB
#p m062x/6-311+g(2df,2p) Opt=(CalcFC,ModRedun)

Gaussian Input Prepared from Scan Object

0 2
O     -0.6399783353     -0.4897045387     0.2804636091
C     -0.1881615238     0.2772591003     -2.029800214
C     -2.0015649213     -0.147470348     0.1409248259
C     0.2207926004     0.0617453235     -0.614577192
H     -0.4917110258     -0.6572522479     -2.520700892
H     0.6535644808     0.6843010103     -2.5860821962
H     -1.019692576     0.9778555699     -2.1256855267
H     -2.5238295661     -0.5956625144     0.981173196
H     -2.1319985027     0.9372794435     0.1678867914
H     -2.4196604917     -0.5362364325     -0.7897627794
H     1.2420914051     -0.2002806983     -0.3793470379

B 1 4
B 11 4
B 8 3
B 9 3
B 3 1
B 4 2
B 10 3
B 5 2
B 7 2
B 6 2
D 11 1 3 9 S 72 10.0


