%nprocshared=20
%mem=5GB
#p m062x/6-311+g(2df,2p) Opt=(CalcFC,ModRedun)

0 1
O     -1.1517151792     1.2267280382     1.6123335429
O     -2.1636858556     -0.7602924752     1.6146287275
C     0.5625092495     -0.2769969491     -1.248544177
C     -0.5115196691     0.8094954141     -1.1703573753
C     1.1984608284     -0.6749034142     0.0848118215
C     -1.8078800594     0.3559511391     -0.4921475041
C     2.0029580007     0.4499814883     0.7292311991
C     -1.7344169075     0.1754720017     0.9998751662
H     0.4353633991     -1.0360269423     0.7781268893
H     1.8573157548     -1.526874559     -0.0937842698
H     1.3549703956     0.0681275955     -1.918010619
H     0.126114174     -1.1623366277     -1.7187051831
H     -0.7657731606     1.1180733465     -2.1851704156
H     -0.1283933182     1.6969021206     -0.6652368311
H     -2.5833720942     1.1077087926     -0.6598829555
H     -2.1644210207     -0.5845373419     -0.9088057121
H     1.371548909     1.2999264062     0.9843193397
H     2.4864241563     0.1107692874     1.6448972333
H     2.7828484137     0.8007839696     0.0509908814
H     -1.1675360165     1.0480487096     2.5613302419

B 14 5
B 20 8
B 16 7
B 9 7
B 4 6
B 12 4
B 15 5
B 7 5
B 5 4
B 11 6
B 18 8
B 17 7
B 3 9
B 19 8
B 10 6
B 21 2
B 6 8
B 2 9
B 13 4
D 11 3 4 6 S 36 10.0


