#p m062x/6-311+g(2df,2p) opt=(calcfc,maxcycle=1000) 

Gaussian input prepared by ASE

0 1
C                -0.6647000000        0.4584000000        0.1693000000
C                 0.6455000000        0.2363000000       -0.5283000000
C                 1.8030000000        0.0938000000        0.4215000000
C                -0.9637000000       -0.7130000000        1.0779000000
C                -1.7402000000        0.5284000000       -0.9025000000
O                 2.9504000000       -0.1072000000       -0.3786000000
H                -0.6869000000        1.3933000000        0.7585000000
H                 0.5678000000       -0.6962000000       -1.1192000000
H                 0.8713000000        1.0663000000       -1.2223000000
H                 1.9976000000        1.0351000000        0.9826000000
H                 1.7355000000       -0.7751000000        1.0857000000
H                -1.1837000000       -0.3600000000        2.1268000000
H                -0.1797000000       -1.4812000000        1.0769000000
H                -1.9035000000       -1.2364000000        0.7450000000
H                -2.1989000000        1.5416000000       -0.9422000000
H                -2.5666000000       -0.1836000000       -0.6625000000
H                -1.3520000000        0.2045000000       -1.8943000000
H                 2.8687000000       -1.0051000000       -0.7942000000



