#p m062x/6-311+g(2df,2p) opt=(calcfc,maxcycle=1000) 

Gaussian input prepared by ASE

0 1
C                -0.3160000000        0.0731000000        0.4796000000
C                 1.1627000000       -0.2466000000        0.4843000000
C                -0.5083000000        1.3851000000       -0.2658000000
C                -1.1344000000       -0.9871000000       -0.1917000000
O                 1.6743000000       -0.3785000000       -0.7992000000
H                -0.6340000000        0.2405000000        1.5225000000
H                 1.3646000000       -1.1319000000        1.1238000000
H                 1.6916000000        0.6044000000        0.9617000000
H                 0.4528000000        1.9422000000       -0.3050000000
H                -0.7592000000        1.1433000000       -1.3219000000
H                -1.2806000000        2.0068000000        0.2208000000
H                -1.8340000000       -1.4338000000        0.5689000000
H                -0.5518000000       -1.7454000000       -0.7261000000
H                -1.8206000000       -0.5261000000       -0.9600000000
H                 2.4929000000       -0.9460000000       -0.7918000000



