#p m062x/6-311+g(2df,2p) opt=(calcfc,verytight,gdiis,maxcycles=900) freq iop(7/33=1,2/16=3) 

Gaussian input prepared by ASE

0 2
O                 0.5180000000       -0.5604000000        0.9624000000
C                -0.1946000000       -0.1388000000       -0.1557000000
C                -1.5000686975        0.4141734920        0.3453912960
C                 0.6597261043        0.8849978560       -0.8610846309
C                 1.7254000000       -1.1547000000        0.6585000000
H                -0.4172945645       -0.9888771035       -0.8128537789
H                -2.0819084127       -0.4603397038        0.7334396259
H                -2.1112495298        0.8649591609       -0.4511302235
H                -1.3066065438        1.1134170904        1.1971893913
H                 0.6625932520        1.8587556488       -0.3533541900
H                 0.4146625276        0.9359587674       -1.9408049645
H                 1.7118090374        0.5045293374       -0.7995863531
H                 1.6643939311       -1.6525116931       -0.3259040419
H                 2.0905574640       -1.8302565283        1.4665053859



