%nprocshared=20
%mem=5GB
#p m062x/6-311+g(2df,2p) Opt=(CalcFC,ModRedun)

Gaussian Input Prepared from Scan Object

0 2
O     1.5314671293     0.4960846668     -1.2206735
C     1.7937909424     1.4273602981     1.0160215977
C     1.2985733136     0.2720509647     0.1540819032
C     1.6788947663     4.0196781008     0.9615031018
C     1.0513114352     2.6902111903     0.7423761447
H     2.8621973386     1.574302712     0.8364933641
H     1.6908604601     1.1393796316     2.0724790004
H     1.8274196432     -0.6459596616     0.4056032186
H     0.2313067542     0.1054688014     0.3434191073
H     1.0885721569     4.8259297252     0.529022449
H     2.6817280747     4.0555638556     0.5306364192
H     1.7927233782     4.2405842579     2.0311337583
H     -0.0294719054     2.6297845252     0.6754116977
H     1.1911581438     1.3673504255     -1.4427374556

B 7 2
B 2 5
B 10 4
B 5 4
B 6 2
B 1 3
B 14 1
B 12 4
B 13 5
B 11 4
B 8 3
B 9 3
B 3 2
D 5 2 3 9 S 36 10.0


