#p m062x/6-311+g(2df,2p) opt=(calcfc,verytight,gdiis,maxcycles=900) freq iop(7/33=1,2/16=3) 

Gaussian input prepared by ASE

0 2
O                -1.8636111964        0.5606934246       -0.9738481166
C                -1.0123919264        0.7914702957        1.2817945923
C                -1.6816000000       -0.0526000000        0.2481000000
C                -2.9816991666        1.9009941580        2.4082474864
C                -1.6881289864        2.0305836122        1.6857893755
H                 0.0342170305        1.0277645326        0.9627467200
H                -0.8877562025        0.1409170329        2.1857049244
H                -1.0089710125       -0.9271819292        0.0482728142
H                -2.6321334137       -0.4963087685        0.6412457213
H                -2.7941366022        2.0794016217        3.4952599433
H                -3.6946502884        2.6570174057        2.0331816564
H                -3.4289300016        0.9105793220        2.2798815529
H                -1.0701971364        2.8695720215        2.0121598059
H                -2.0141880159        1.5278971799       -0.9381681889



