%nprocshared=20
%mem=5GB
#p m062x/6-311+g(2df,2p) Opt=(CalcFC,ModRedun)

Gaussian Input Prepared from Scan Object

0 2
O     10.6542740899     -20.651607695     13.1136399044
C     12.8970493869     -23.1306873971     14.860199892
C     12.0976695895     -22.5624561924     13.687368945
C     13.9649253083     -22.1685044829     15.3690306981
C     11.2906585828     -21.3753379747     14.0790365893
H     12.2068239995     -23.3808358773     15.6697109238
H     13.3618640411     -24.0679354735     14.5516048314
H     11.4478204659     -23.345778341     13.2709183056
H     12.7900451901     -22.2824406582     12.882690618
H     14.5298315264     -22.6038512137     16.1924058817
H     13.519355439     -21.2367900928     15.7163098373
H     14.6690663009     -21.9205598431     14.573044027
H     10.7496469136     -21.3653067368     15.0158857801
H     11.1223765452     -20.7427945024     12.2799194219

B 8 3
B 1 5
B 9 3
B 10 4
B 13 5
B 11 4
B 14 1
B 12 4
B 3 2
B 6 2
B 2 4
B 5 3
B 7 2
D 14 1 5 13 S 36 10.0


