%nprocshared=20
%mem=5GB
#p m062x/6-311+g(2df,2p) opt=(calcfc,verytight,gdiis,maxcycles=900) freq iop(7/33=1,2/16=3) 

Gaussian input prepared by ASE

0 1
O                -5.1174475849       -6.7484643260       -1.9916935891
O                -1.0050119818       -8.4768677833       -3.3756876277
O                -2.7088886333       -9.9230411171       -2.8716805357
N                -4.3516190414       -7.8751563945       -1.9378200829
C                -3.0363784174       -7.5337295831       -2.4671052929
C                -2.2766570388       -8.7321339936       -2.8982243087
H                -2.4649367245       -6.9881619142       -1.6900697144
H                -3.1188834381       -6.8258790007       -3.3301975444
H                -4.7548629157       -8.4798847332       -2.6958880906
H                -5.5330363094       -6.6765401894       -1.1025658082
H                -0.6200233505       -9.3813984676       -3.6533098618



