%nprocshared=20
%mem=5GB
#p m062x/6-311+g(2df,2p) opt=(calcfc,verytight,gdiis,maxcycles=900) freq iop(7/33=1,2/16=3) 

Gaussian input prepared by ASE

0 1
O                -8.9601161626       -8.2742388861        0.4327360354
O                -7.8603454210       -5.5151148294        0.9955073017
O                -8.2169938812       -4.9483293242       -1.1964957919
N                -7.6055512847       -8.1669569426        0.3210431253
C                -7.3331382213       -7.1649181825       -0.7028135278
C                -7.8443326690       -5.8174997035       -0.3530178889
H                -7.7352404089       -7.4712478448       -1.6889422966
H                -6.2225368046       -7.0991950813       -0.8254215504
H                -7.3301897166       -9.0605272512       -0.1571589245
H                -9.1359653596       -8.3182322435        1.3999882902
H                -8.2166245735       -4.5604330020        1.0670187266



