%nprocshared=20
%mem=5GB
#p m062x/6-311+g(2df,2p) opt=(calcfc,verytight,gdiis,maxcycles=900) freq iop(7/33=1,2/16=3) 

Gaussian input prepared by ASE

0 1
O                -6.2645959896       -6.6933019916        5.4005248680
O                -9.5215629834       -9.2384281507        4.9903052584
O                -7.3882939451      -10.0596450210        4.7618432783
N                -6.4036662809       -7.4388779840        4.2675612218
C                -7.8186324591       -7.7547512609        4.1105014005
C                -8.1927235031       -9.0879626213        4.6413654785
H                -8.0747511530       -7.7254586563        3.0327634278
H                -8.4348685747       -6.9538407646        4.5917323084
H                -5.9877465649       -8.3660709580        4.5326896227
H                -5.7875656793       -5.8828981610        5.1104852253
H                -9.6232590756      -10.2013957710        5.3156010886



