%nprocshared=20
%mem=5GB
#p m062x/6-311+g(2df,2p) Opt=(CalcFC,ModRedun)

Gaussian Input Prepared from Scan Object

0 2
O     1.365278147     -0.048428244     0.6576248986
O     0.8001196536     -0.5488305235     -1.4617098826
C     -1.7686268563     -1.5999064806     -0.5597630401
C     2.6016161948     0.4502372114     0.1613634038
C     -0.707331464     -1.0234980206     0.2917079549
C     0.5278484013     -0.5343355762     -0.2819076156
H     -1.988226537     -2.6296282537     -0.2655851692
H     -1.4680143008     -1.585950505     -1.6043087822
H     -2.7024616156     -1.0422496972     -0.4499292677
H     3.1531302485     0.799047331     1.0281335166
H     2.4298559159     1.2675424506     -0.5369730426
H     3.1519494399     -0.3372766465     -0.3506117017
H     -0.825831589     -0.9524286561     1.3628788828

B 1 6
B 2 6
B 9 3
B 12 4
B 7 3
B 5 3
B 8 3
B 13 5
B 4 1
B 10 4
B 11 4
B 6 5
D 13 3 5 13 S 72 10.0


