%nprocshared=20
%mem=5GB
#p m062x/6-311+g(2df,2p) opt=(calcfc,verytight,gdiis,maxcycles=900) freq iop(7/33=1,2/16=3) 

Gaussian input prepared by ASE

0 2
O                -1.5427720000       -1.7300450000       -0.1798180000
O                -0.0555990000        1.1778550000       -0.7021850000
O                 2.4435780000        0.0139950000       -0.5628410000
O                 2.1956940000       -0.1952950000        0.8225180000
C                -0.7612130000        0.5472870000        0.2209750000
C                -0.5984920000       -1.0241990000       -0.1408600000
C                -2.2192460000        0.9304910000        0.3441640000
H                -0.2310550000        0.5111090000        1.1945570000
H                 2.9494190000        0.2460500000        1.2278240000
H                 0.4437340000       -1.3219050000       -0.3215160000
H                -2.7180370000        0.8063350000       -0.6150320000
H                -2.7216140000        0.3078480000        1.0820700000
H                -2.2906770000        1.9735220000        0.6463060000
H                 1.7147340000        0.6234940000       -0.7812730000



