%nprocshared=20
%mem=5GB
#p m062x/6-311+g(2df,2p) opt=(calcfc,verytight,gdiis,maxcycles=900) freq iop(7/33=1,2/16=3) 

Gaussian input prepared by ASE

0 2
O                 1.4527880000        0.9887270000       -0.0919490000
C                -1.2640520000       -0.5206050000        0.2315830000
C                 0.0561590000       -1.0158790000       -0.3679910000
C                -1.5749350000        0.9034660000       -0.0685920000
C                 1.2872100000       -0.3709660000        0.2546560000
H                -2.0755930000       -1.1539090000       -0.1538900000
H                -1.2562930000       -0.6820620000        1.3130400000
H                 0.0686000000       -0.8294010000       -1.4447320000
H                 0.1264600000       -2.0963980000       -0.2256630000
H                -2.2100030000        1.4801380000        0.5873910000
H                -1.4084500000        1.2870540000       -1.0661110000
H                 0.6689440000        1.4743340000        0.1819760000
H                 1.2518470000       -0.4903300000        1.3448010000
H                 2.1858910000       -0.8753460000       -0.0991530000



