%nprocshared=20
%mem=5GB
#p m062x/6-311+g(2df,2p) opt=(calcfc,verytight,gdiis,maxcycles=900) freq iop(7/33=1,2/16=3) 

Gaussian input prepared by ASE

0 2
O                 0.6205824636        1.3675361543       -1.7838271886
C                 0.7017833584       -0.4523435343        0.5500159710
C                -0.3439282289       -0.4733485155       -0.5246913738
C                 1.6654727485        0.7060353464        0.4732439809
C                -0.5389038066        0.8393051592       -1.2425473583
H                 0.2029604971       -0.4422419062        1.5514180881
H                 1.2837543444       -1.4074857220        0.5021186574
H                -0.0836219300       -1.2588404328       -1.2780614082
H                -1.3282156034       -0.7908002992       -0.0966383988
H                 1.3845680247        1.5267385432        1.1802499914
H                 1.6073714509        1.1351006707       -0.5486767336
H                 2.7003554162        0.4013704404        0.6726064624
H                -1.0492988616        1.5817495163       -0.5794177145
H                -1.2293704727        0.6461067102       -2.0943314638



