#p m062x/6-311+g(2df,2p) opt=(calcfc,verytight,maxcycles=900) freq iop(7/33=1) 

Gaussian input prepared by ASE

0 1
O                -1.2533000000       -0.8926000000       -0.5593000000
O                 1.5213000000       -0.9145000000       -0.3445000000
O                 0.2438000000       -1.2063000000        1.4829000000
N                -1.0806000000        0.4580000000       -0.5268000000
C                -0.0003000000        0.8415000000        0.3755000000
C                 0.8178000000       -0.3610000000        0.7309000000
H                 0.6873000000        1.5841000000       -0.1040000000
H                -0.3926000000        1.3613000000        1.2748000000
H                -0.7670000000        0.7335000000       -1.4814000000
H                -1.9920000000       -1.1928000000        0.0092000000
H                 2.2157000000       -0.4112000000       -0.8573000000



