#p m062x/6-311+g(2df,2p) opt=(calcfc,verytight,gdiis,maxcycles=900) freq IOP(2/16=3) 

Gaussian input prepared by ASE

0 1
O                -1.1207000000        0.4913000000        1.2598000000
O                 2.1701000000        0.0407000000        0.2661000000
O                 0.8080000000       -1.7097000000        0.6803000000
N                -0.9868000000        0.7708000000       -0.0428000000
C                -0.1369000000       -0.1350000000       -0.7644000000
C                 0.9548000000       -0.5810000000        0.1211000000
H                 0.2352000000        0.4060000000       -1.6681000000
H                -0.7006000000       -1.0149000000       -1.1658000000
H                -1.8671000000        1.0135000000       -0.5251000000
H                -1.6893000000       -0.3015000000        1.4487000000
H                 2.3333000000        1.0199000000        0.3902000000



