%nprocshared=20
%mem=5GB
#p m062x/6-311+g(2df,2p) Opt=(CalcFC,ModRedun)

Gaussian Input Prepared from Scan Object

0 1
O     1.918693     0.11216     -0.75825
O     -0.939037     1.265509     0.265253
O     -2.0281     -0.516545     -0.489839
N     1.35314     -0.048877     0.531267
C     0.165132     -0.87352     0.389786
C     -1.046768     -0.039671     -0.009313
H     0.288748     -1.670558     -0.343717
H     -0.058386     -1.322906     1.359428
H     2.056718     -0.546665     1.064588
H     1.986398     1.061844     -0.885281
H     -0.068098     1.410582     0.665961

B 4 9
B 1 4
B 2 11
B 5 8
B 5 4
B 6 5
B 10 1
B 3 6
B 6 2
B 7 5
D 9 4 5 7 S 72 10.0


