%nprocshared=20
%mem=5GB
#p m062x/6-311+g(2df,2p) Opt=(CalcFC,ModRedun)

Gaussian Input Prepared from Scan Object

0 1
O     1.15609376     0.6041679018     0.4584129271
O     1.3835294962     -1.5819752197     0.0499672826
C     -0.2358338753     -0.8511873276     1.67866026
C     0.2944212479     -0.5200044411     3.0756848262
C     2.196044337     0.8526337104     -0.483720449
C     0.8408945116     -0.6884203769     0.639499824
H     -0.5824845848     -1.8800033677     1.6259942595
H     -1.0625368264     -0.186478433     1.4278752657
H     1.1281920816     -1.171086593     3.3357582121
H     -0.4878267606     -0.6582530294     3.8194207687
H     0.6355820713     0.5122691828     3.1230768704
H     3.1153393049     0.3611750108     -0.1712041864
H     2.3272149513     1.9292118307     -0.5080271881
H     1.9140947772     0.4785473341     -1.465949018

B 9 4
B 12 5
B 13 5
B 2 6
B 8 3
B 6 3
B 5 1
B 3 4
B 7 3
B 1 6
B 14 5
B 10 4
B 11 4
D 4 3 6 2 S 36 10.0


