%nprocshared=20
%mem=5GB
#p m062x/6-311+g(2df,2p) opt=(calcfc,verytight,gdiis,maxcycles=900) freq iop(7/33=1,2/16=3) 

Gaussian input prepared by ASE

0 2
O                -1.2247967431        0.4159348895        0.5745750247
O                -0.4779970869       -0.7802799604       -1.2618601009
C                 2.3985317888       -0.3425521730       -0.3885289824
C                -2.5232088456        0.0629142100        0.1029706332
C                 1.1592544773        0.2081915733        0.2506244900
C                -0.2149826385       -0.1085917186       -0.2383696976
H                 2.2213363986       -1.3775777229       -0.7779076731
H                 2.7128143010        0.2755226882       -1.2452696074
H                 3.2460158189       -0.3612793249        0.3424580028
H                -2.8107888400        0.6999380004       -0.7530952272
H                -3.2418363633        0.2326224880        0.9424972267
H                -2.5491627145       -1.0112399300       -0.2064937755
H                 1.2713078244        0.8817330414        1.1305078846



