%nprocshared=20
%mem=5GB
#p m062x/6-311+g(2df,2p) opt=(calcfc,verytight,gdiis,maxcycles=900) freq iop(7/33=1,2/16=3) 

Gaussian input prepared by ASE

0 2
O                 0.6767829351       -0.3258598814       -0.9409280110
C                -0.2658712558       -0.2597889559        0.0698785328
C                -0.2538943499       -1.4780048744        0.9639853830
C                 1.9791160370       -0.3016769502       -0.4625147403
C                -0.1545231105        1.0003803864        0.9027973039
H                -1.2438381988       -0.2607073235       -0.4367525708
H                 0.6498484613       -1.5123522446        1.5939757474
H                -0.2819394823       -2.4089027374        0.3491244400
H                -1.1373580916       -1.4793975769        1.6341710644
H                 2.2440341225       -1.2488156985        0.0399052129
H                 2.6687346325       -0.1572736545       -1.3279958268
H                 2.1301755274        0.5321201498        0.2534128512
H                 0.8280380690        1.5038624190        0.9310653340
H                -0.7314501446        1.0438555803        1.8454687763



