%nprocshared=20
%mem=5GB
#p m062x/6-311+g(2df,2p) opt=(calcfc,verytight,gdiis,maxcycles=900) freq iop(7/33=1,2/16=3) 

Gaussian input prepared by ASE

0 2
O                -0.8417990000        0.0724550000        0.7084490000
C                 0.5561850000        0.0894720000        0.4573130000
C                 1.0540090000       -1.1942990000       -0.1999140000
C                -1.6499220000       -0.0913400000       -0.4321190000
C                 0.9590640000        1.3060120000       -0.3024090000
H                 0.9862240000        0.1402540000        1.4654050000
H                 2.1434150000       -1.2119840000       -0.1922870000
H                 0.7259320000       -1.2631880000       -1.2370270000
H                 0.6876610000       -2.0625590000        0.3460590000
H                -1.3783930000        0.6127990000       -1.2250010000
H                -1.5904020000       -1.1084180000       -0.8295550000
H                -2.6743980000        0.1022240000       -0.1236340000
H                 1.8440430000        1.3052910000       -0.9210090000
H                 0.4742930000        2.2468760000       -0.0877700000



