%nprocshared=20
%mem=5GB
#p m062x/6-311+g(2df,2p) Opt=(CalcFC,ModRedun)

Gaussian Input Prepared from Scan Object

0 2
O     -0.6578902448     -0.6038879354     -0.3160679256
C     0.4286143868     0.0435176803     0.3196642396
C     1.6740254406     -0.7631540228     -0.0332415697
C     -1.913581927     -0.1138568438     0.0824635826
C     0.5509435616     1.4646357746     -0.1119746609
H     0.2776218923     0.006341153     1.4079976032
H     2.5539293065     -0.3366551055     0.445778455
H     1.8212351616     -0.7506560305     -1.1126849054
H     1.5525559568     -1.7952953349     0.2928589594
H     -2.0497768706     -0.2179896477     1.1647763337
H     -2.0407006377     0.9397052444     -0.1836312309
H     -2.669026317     -0.7050000034     -0.429220035
H     0.9821734497     2.2098499646     0.5386989596
H     0.3971058412     1.706459107     -1.1543398056

B 2 5
B 3 2
B 9 3
B 13 5
B 8 3
B 12 4
B 4 1
B 6 2
B 7 3
B 14 5
B 10 4
B 11 4
B 1 2
D 2 1 4 12 S 12 30.0


