%nprocshared=20
%mem=5GB
#p m062x/6-311+g(2df,2p) Opt=(CalcFC,ModRedun)

Gaussian Input Prepared from Scan Object

0 1
O     -1.2006295092     2.1536436545     0.227255679
C     -2.3930754858     0.0695061888     0.7096472594
C     -3.7903632184     0.5707275337     0.3601342857
C     -1.289555894     0.7712854056     -0.0658989133
C     -4.8829736194     -0.1895073154     1.1031653443
H     -3.9463537218     0.4807158463     -0.7190231394
H     -3.8704160762     1.6337243712     0.6027521512
H     -2.3325010955     -1.0032606962     0.5040539228
H     -2.2120666084     0.2022658327     1.7792891287
H     -1.4335753328     0.6159636889     -1.1416613001
H     -0.3193396778     0.3525615828     0.1981174344
H     -4.7527553282     -0.0949082289     2.1818154833
H     -5.8750080568     0.1828483272     0.8509904473
H     -4.849984226     -1.2517424374     0.8579485893
H     -1.9882833009     2.5936550624     -0.0967800902

B 11 4
B 8 2
B 9 2
B 12 5
B 3 5
B 14 5
B 1 4
B 6 3
B 15 1
B 4 2
B 13 5
B 2 3
B 7 3
B 10 4
D 9 2 4 10 S 72 10.0


