#p m062x/6-311+g(2df,2p) opt=(calcfc,verytight,gdiis,maxcycles=900) freq iop(7/33=1,2/16=3) 

Gaussian input prepared by ASE

0 1
O                -1.2253542583        2.1061106690        0.2224152385
C                -2.3878433343        0.0392326196        0.6390803643
C                -3.7665189673        0.5817512355        0.3698835950
C                -1.3107000000        0.7535000000       -0.1491000000
C                -4.8478878517       -0.1258235380        1.1367464548
H                -3.9599643100        0.3825539036       -0.7152526464
H                -3.7893501057        1.6840758762        0.4818636630
H                -2.4052272059       -1.0552835841        0.3988290569
H                -2.1979534121        0.1655511903        1.7295757224
H                -1.4566187918        0.6787836532       -1.2395488772
H                -0.3059546960        0.3294188268        0.0902763621
H                -4.9622612775        0.2656697122        2.1725842629
H                -5.8273608422        0.0168541804        0.6130262151
H                -4.5639808754       -1.2093925666        1.1624252185
H                -2.1299052232        2.4744766380        0.4390016525



