%nprocshared=20
%mem=5GB
#p m062x/6-311+g(2df,2p) opt=(calcfc,verytight,gdiis,maxcycles=900) freq iop(7/33=1,2/16=3) 

Gaussian input prepared by ASE

0 2
O                -0.8044188536       -0.9931143059       -0.7240274925
C                 1.3139532485        0.2784193880       -0.2831141884
C                -1.4581358803        0.1611365303       -0.3480586691
C                 0.5458270371       -1.0324282950       -0.3756353501
H                 0.6669414826        1.0909603777        0.0719183382
H                 2.1742492247        0.1827374866        0.4247713863
H                 1.7265093393        0.5658670869       -1.2685336688
H                -1.1587152042        1.0333236252       -0.9823620904
H                -2.5556984562       -0.0030399876       -0.4807259334
H                -1.2621555155        0.4221094158        0.7229928888
H                 1.0450532763       -1.8447077004       -0.9641010413



