%nprocshared=20
%mem=5GB
#p m062x/6-311+g(2df,2p) opt=(calcfc,verytight,gdiis,maxcycles=900) freq iop(7/33=1,2/16=3) 

Gaussian input prepared by ASE

0 2
O                 0.4363638093        0.4287625946        1.3971071714
O                 0.0366144215       -1.8398894414        1.1610664499
C                 1.6269680326       -0.7911854289       -0.3635607500
C                -0.5302898993        0.3211068197        2.4911331587
C                 0.6277272625       -0.8520789593        0.7839877319
C                 0.9811561844       -0.3921734334       -1.6191055592
H                 2.1014586454       -1.8041702949       -0.4657336226
H                 2.4273669082       -0.0530718551       -0.0786452768
H                -0.6464573047        1.3461140801        2.9205154467
H                -1.5135664351       -0.0493051668        2.0966393638
H                -0.1418408848       -0.3833439663        3.2738242193
H                 0.6059002149        0.6541018189       -1.6938701452
H                 0.3652544170       -1.1558014618       -2.1475566964



