%nprocshared=20
%mem=5GB
#p m062x/6-311+g(2df,2p) opt=(calcfc,verytight,gdiis,maxcycles=900) freq iop(7/33=1,2/16=3) 

Gaussian input prepared by ASE

0 1
O                 1.8895800000       -0.7357450000       -0.2475370000
C                 0.0005260000        0.7035820000       -0.2264480000
C                -0.9471180000       -0.3424550000        0.3499200000
C                 1.4332810000        0.5194550000        0.2300390000
C                -2.3802570000       -0.1474310000       -0.1299550000
H                -0.9119650000       -0.2924640000        1.4418070000
H                -0.5898870000       -1.3344770000        0.0721180000
H                -0.3314170000        1.7042940000        0.0635110000
H                -0.0246150000        0.6615340000       -1.3185530000
H                 1.4771410000        0.5507160000        1.3250770000
H                 2.0582710000        1.3289720000       -0.1590690000
H                -2.4372660000       -0.2206270000       -1.2168800000
H                -3.0494670000       -0.8972310000        0.2903500000
H                -2.7577940000        0.8359800000        0.1549060000
H                 2.8117660000       -0.8496400000       -0.0143060000



