%nprocshared=20
%mem=5GB
#p m062x/6-311+g(2df,2p) opt=(calcfc,verytight,gdiis,maxcycles=900) freq iop(7/33=1,2/16=3) 

Gaussian input prepared by ASE

0 1
O                -2.5371207394        0.2369994654        0.5132070798
C                -1.5689804822       -1.8976278441       -0.1297704988
C                -2.6715505515       -2.1455412474       -1.1242160110
C                -1.3558415138       -0.4543772233        0.2204503968
C                -2.2069926087       -2.6577989064       -2.4692036460
H                -3.2526978571       -1.2024264951       -1.2829594307
H                -3.3944228669       -2.8779012474       -0.7005319117
H                -0.6004505626       -2.3119382585       -0.5099262239
H                -1.7925319386       -2.4716663665        0.8055108178
H                -0.7076729041       -0.3775159621        1.1162406735
H                -0.8082724571        0.0631843172       -0.6080665674
H                -3.0786897808       -3.0529204155       -3.0476260292
H                -1.4811579165       -3.4736483943       -2.3590378042
H                -1.7382459351       -1.8572928823       -3.0638988632
H                -3.1922847615       -0.0101162731       -0.1798101103



