%nprocshared=20
%mem=5GB
#p m062x/6-311+g(2df,2p) opt=(calcfc,verytight,gdiis,maxcycles=900) freq iop(7/33=1,2/16=3) 

Gaussian input prepared by ASE

0 2
O                 0.3369595279       -0.8119110416        0.4724687734
C                 2.4733699901       -1.6842278105       -0.4190617054
C                 2.7617416513       -2.6025473077        0.7603979701
C                 1.6535483733       -0.4683518210       -0.0633928691
C                 1.5749963054       -3.1797409756        1.4094738704
H                 3.4508731501       -1.3477109552       -0.8547853561
H                 1.9520193766       -2.2660450674       -1.2238000357
H                 3.3792973875       -2.0518020935        1.5184424201
H                 3.4229830799       -3.4396933392        0.3681572341
H                 1.4728041550        0.1634510296       -0.9732756398
H                 2.1989693407        0.1726089795        0.6910099923
H                 1.6078613046       -3.3488920758        2.5099225995
H                 0.9596666574       -3.9079360835        0.8330144313
H                 0.5102720952       -1.6157536661        1.0250632725



