%nprocshared=20
%mem=5GB
#p m062x/6-311+g(2df,2p) opt=(calcfc,verytight,gdiis,maxcycles=900) freq iop(7/33=1,2/16=3) 

Gaussian input prepared by ASE

0 1
C                 0.7056968692       -0.5528894837       -0.5352643138
C                -0.7419756081       -0.1792148635       -0.6993673817
C                 1.4885676348        0.3915906853        0.3289729596
C                -1.4600004227        0.1101861700        0.6037053512
H                 0.7802093894       -1.5871817502       -0.1135409427
H                 1.1657734649       -0.6030256811       -1.5317949494
H                -1.2747003885       -1.0063843375       -1.2334854021
H                -0.8156973365        0.7017534477       -1.3483329211
H                 2.5529342688        0.4577462673       -0.0122036479
H                 1.4910431770        0.0572406874        1.3950574593
H                 1.0609444142        1.4225544652        0.3025395383
H                -0.8856996775        0.8310103728        1.2179326812
H                -1.5962548342       -0.8187965110        1.1968222736
H                -2.4712931780        0.5474504148        0.4074346111



