%nprocshared=20
%mem=5GB
#p m062x/6-311+g(2df,2p) opt=(calcfc,verytight,gdiis,maxcycles=900) freq iop(7/33=1,2/16=3) 

Gaussian input prepared by ASE

0 2
O                 1.0839721664       -0.2928622197       -0.5803117713
C                -0.1608506040       -0.0403297593        0.1811068293
C                -0.3086020749        1.4286811003        0.4973987033
C                -1.3223618083       -0.6052150780       -0.5970184843
C                 2.2241616427        0.0574554773        0.1832727829
H                -0.0629813218       -0.6046306860        1.1551202692
H                 0.6460041157        1.8101365655        0.9479793092
H                -1.1392657838        1.5907679687        1.2283445304
H                -0.5311769319        2.0343635828       -0.4169144466
H                -2.2782317430       -0.4650590190       -0.0323702568
H                -1.4315600308       -0.0929018659       -1.5857763652
H                -1.1855025169       -1.6998685763       -0.7875787089
H                 2.0358803593        0.9632766679        0.8297754457
H                 3.1046822057        0.1586272773       -0.5014514232



