%nprocshared=20
%mem=5GB
#p m062x/6-311+g(2df,2p) opt=(calcfc,verytight,gdiis,maxcycles=900) freq iop(7/33=1,2/16=3) 

Gaussian input prepared by ASE

0 2
O                 0.7659070000       -0.5498590000       -0.3355300000
C                -0.3725600000        0.0026440000        0.3232680000
C                -0.5998100000        1.4344400000       -0.1317300000
C                -1.5432760000       -0.9014570000        0.0005440000
C                 1.9620910000       -0.0888440000        0.0774350000
H                -0.1759540000       -0.0151850000        1.4019530000
H                 0.2718130000        2.0519650000        0.0803390000
H                -1.4629300000        1.8609960000        0.3786090000
H                -0.7841030000        1.4536480000       -1.2062660000
H                -2.4454620000       -0.5415510000        0.4934240000
H                -1.7156650000       -0.9116750000       -1.0757650000
H                -1.3447700000       -1.9197820000        0.3294360000
H                 2.0468820000        0.2671670000        1.0975410000
H                 2.8042610000       -0.5274040000       -0.4321280000



