%nprocshared=20
%mem=5GB
#p m062x/6-311+g(2df,2p) Opt=(CalcFC,ModRedun)

Gaussian Input Prepared from Scan Object

0 2
O     1.0349998799     -0.0867265598     -0.6031853205
C     -0.1377956597     0.0501283407     0.1992392343
C     -0.4093912962     1.5191531326     0.4780913855
C     -1.2673162783     -0.6105651743     -0.5625464834
C     2.2101448881     0.0212161242     0.0444020415
H     0.0359041029     -0.4827336796     1.1403467908
H     0.4351263208     1.9875368838     0.9818297675
H     -1.2900222968     1.6276412845     1.1106053736
H     -0.5866134913     2.0450019126     -0.4604269371
H     -2.1950148413     -0.5453921306     0.0045981601
H     -1.4091624749     -0.1092304592     -1.5201078159
H     -1.0416278265     -1.6585279788     -0.7500455138
H     2.2204494587     0.4070099063     1.054150527
H     3.0744871891     0.0779298331     -0.5953747959

B 2 1
B 4 2
B 10 4
B 1 5
B 3 2
B 14 5
B 13 5
B 11 4
B 9 3
B 8 3
B 7 3
B 12 4
B 6 2
D 5 1 2 3 S 36 10.0


