%nprocshared=20
%mem=5GB
#p m062x/6-311+g(2df,2p) opt=(calcfc,verytight,gdiis,maxcycles=900) freq iop(7/33=1,2/16=3) 

Gaussian input prepared by Avogadro

0 2
O           0.12856        -1.80322        -0.81217
O           1.44174        -0.25701         1.18091
O           0.87842        -1.27591        -1.93924
O           2.45374        -0.62074         0.26831
C           0.38253         0.35137         0.43698
C          -0.53726        -0.70030        -0.19948
C           0.86261         1.44748        -0.51648
H          -0.22854         0.87335         1.18477
H          -1.23110        -0.24689        -0.91649
H          -1.14749        -1.14361         0.59566
H           1.49912         1.06712        -1.31944
H           0.01294         1.96418        -0.97397
H           1.46093         2.18405         0.03116
H           1.75444        -1.28744        -1.49293



