%nprocshared=20
%mem=5GB
#p m062x/6-311+g(2df,2p) opt=(calcfc,verytight,gdiis,maxcycles=900) freq iop(7/33=1,2/16=3) 

Gaussian input prepared by Avogadro

0 2
O           0.16394        -1.85222        -1.01915
O           1.42389        -0.50591         1.15300
O           0.90879        -1.13218        -2.04266
O           2.53108        -0.67059         0.29431
C           0.42377         0.16714         0.38424
C          -0.51741        -0.86885        -0.23524
C          -0.33644         1.09649         1.32205
H          -1.27672        -0.38574        -0.86028
H          -1.03761        -1.42190         0.55450
H           1.78854        -1.21667        -1.61332
H          -1.12310         1.64095         0.79096
H           0.34746         1.82333         1.77366
H          -0.79050         0.53806         2.14817
H           0.89706         0.77947        -0.39408



