%nprocshared=20
%mem=5GB
#p m062x/6-311+g(2df,2p) opt=(calcfc,verytight,gdiis,maxcycles=900) freq iop(7/33=1,2/16=3) 

Gaussian input prepared by ASE

0 2
O                 0.9015450487        0.1342897036        0.6318491954
C                -0.0832248516        0.1343712156       -0.3451002592
C                -0.9157996350       -1.1408626341       -0.3122241506
C                 0.4634232828        0.4139650346       -1.7168196851
C                 1.9727122518       -0.6953435473        0.3520585739
H                -0.7633015888        0.9782568636       -0.0702926634
H                -1.3391794320       -1.3050465462        0.7041961613
H                -1.7548854295       -1.0725662367       -1.0294603751
H                -0.2999633462       -2.0302813340       -0.5748929375
H                 1.3342045945       -0.2541186940       -1.9397550093
H                 0.8053137226        1.4575353264       -1.7924550163
H                -0.3159708681        0.2397434071       -2.5025896719
H                 2.5263001234       -0.9042465823        1.2804213157
H                 1.6796961941       -1.6109342577       -0.2207116164



