%nprocshared=20
%mem=5GB
#p m062x/6-311+g(2df,2p) opt=(calcfc,verytight,gdiis,maxcycles=900) freq iop(7/33=1,2/16=3) 

Gaussian input prepared by ASE

0 2
O                 0.7572660000       -0.5846210000       -0.3082740000
C                -0.3765230000        0.0037500000        0.3274130000
C                -0.5642120000        1.4381130000       -0.1380950000
C                -1.5635180000       -0.8747490000       -0.0055310000
C                 1.9566460000       -0.0958810000        0.0615760000
H                -0.1958160000       -0.0107760000        1.4092130000
H                 0.3121600000        2.0418710000        0.0920990000
H                -1.4315730000        1.8816300000        0.3500680000
H                -0.7226070000        1.4567750000       -1.2168630000
H                -2.4622730000       -0.4944800000        0.4781440000
H                -1.7256200000       -0.8835120000       -1.0834520000
H                -1.3901920000       -1.8964150000        0.3272070000
H                 2.0489730000        0.3319690000        1.0532180000
H                 2.7944610000       -0.5774910000       -0.4156230000



