%nprocshared=20
%mem=5GB
#p m062x/6-311+g(2df,2p) opt=(calcfc,verytight,gdiis,maxcycles=900) freq iop(7/33=1,2/16=3) 

Gaussian input prepared by ASE

0 2
O                 0.7616437066       -0.7308501801        0.4633016524
C                -0.1552777629       -0.1164179957       -0.3768948184
C                 0.3730633616        0.1952394380       -1.7712435122
C                -0.7620570177        1.0946949322        0.2739780431
C                 2.0955650850       -0.5152490432        0.1664124374
H                -0.9811478356       -0.8594458812       -0.5034442337
H                 0.9147492273       -0.6779530290       -2.1995289295
H                -0.4707281875        0.4392875356       -2.4432654744
H                 1.0638655161        1.0681889044       -1.7630910557
H                 0.0033352947        1.8946303744        0.4430165487
H                -1.2059874630        0.8339016332        1.2468918856
H                -1.5687503545        1.5265542905       -0.3725405144
H                 2.7064861349       -1.2541834489        0.7074381344
H                 2.2910266816       -0.4981291294       -0.9352826760



