%nprocshared=20
%mem=5GB
#p m062x/6-311+g(2df,2p) opt=(calcfc,verytight,gdiis,maxcycles=900) freq iop(7/33=1,2/16=3) 

Gaussian input prepared by ASE

0 2
O                 1.1340211122        0.2062371359        0.6702913246
C                 0.0753196985        0.1054765032       -0.2203267819
C                 0.5095983173        0.1892308083       -1.6780202605
C                -0.9654659244        1.1337548785        0.1232135219
C                 2.2811835965       -0.4555071529        0.2701838003
H                -0.3997645339       -0.8955584077       -0.0706917282
H                 0.7053074816       -0.8230973593       -2.0977900357
H                -0.2735809545        0.6615361105       -2.2998844736
H                 1.4431922567        0.7876470202       -1.7760776092
H                -0.5701947813        2.1759212321        0.0139151472
H                -1.3113165508        1.0065251406        1.1604447728
H                -1.8515335554        1.0366509207       -0.5555337542
H                 2.9144546632       -0.6478021250        1.1499268251
H                 2.0765489505       -1.3647309467       -0.3492249537



