%nprocshared=20
%mem=5GB
#p m062x/6-311+g(2df,2p) opt=(calcfc,verytight,gdiis,maxcycles=900) freq iop(7/33=1,2/16=3) 

Gaussian input prepared by ASE

0 2
O                 0.8316578680       -0.1965218819        0.6602639853
C                -0.1417519586        0.0270457198       -0.3023848795
C                -0.9459898880        1.2654386979        0.0718706010
C                -1.0248614112       -1.1737611887       -0.4941960710
C                 1.9715594840       -0.7865298996        0.1440390880
H                 0.3661113176        0.2394310898       -1.2755929340
H                -0.2642859430        2.1299649259        0.2367681218
H                -1.6520019038        1.5327430952       -0.7363698104
H                -1.5254990100        1.1000819312        1.0078947285
H                -1.4771337874       -1.4973587417        0.4779306910
H                -0.4587793717       -2.0218987125       -0.9087592090
H                -1.8661064758       -0.9384985636       -1.1957665440
H                 2.1935080972       -0.4411247231       -0.8774262649
H                 2.8165945109       -0.6535788223        0.8654753391



