%nprocshared=20
%mem=5GB
#p m062x/6-311+g(2df,2p) opt=(calcfc,verytight,gdiis,maxcycles=900) freq iop(7/33=1,2/16=3) 

Gaussian input prepared by ASE

0 2
O                -1.6906760000       -0.6561400000        0.4084940000
C                 1.0763750000        0.2794640000        0.5959020000
C                -0.0720790000        1.0436100000       -0.0741100000
C                 1.7611790000       -0.6985400000       -0.3511690000
C                -1.1581740000        0.1540200000       -0.5558350000
H                 1.8012480000        1.0017040000        0.9750050000
H                 0.6841030000       -0.2572570000        1.4607560000
H                -0.4736470000        1.7754430000        0.6405970000
H                 0.3073940000        1.6114080000       -0.9262910000
H                 2.1470980000       -0.1814510000       -1.2315660000
H                 2.5955340000       -1.2026280000        0.1352290000
H                 1.0595190000       -1.4585050000       -0.6948690000
H                -1.8139440000        0.4461120000       -1.3667520000
H                -2.4256990000       -1.1570270000        0.0512180000



