%nprocshared=20
%mem=5GB
#p m062x/6-311+g(2df,2p) opt=(calcfc,verytight,gdiis,maxcycles=900) freq iop(7/33=1,2/16=3) 

Gaussian input prepared by ASE

0 2
O                 1.8163803048        1.5290277052        2.1331741537
C                -1.6942142039        1.6317958547        1.4382951649
C                -0.2733748629        1.8382224095        0.9278945333
C                -1.8338072733        1.8227067543        2.9224956579
C                 0.7039947992        2.3293717648        1.9506906393
H                -2.3709075892        2.3177638456        0.9126921039
H                -2.0325725931        0.6128521307        1.1585927737
H                -0.3086905702        2.5664238589        0.0863631436
H                 0.1007941602        0.8903659243        0.5042362330
H                -2.1981166916        0.8979813575        3.4300535741
H                -0.8477150405        2.0857946514        3.3506268958
H                -2.5481425249        2.6452059379        3.1636854821
H                 0.9453054868        3.3982697000        1.9237557876
H                 2.4534508618        2.0364179533        2.7128366861



