%nprocshared=20
%mem=5GB
#p m062x/6-311+g(2df,2p) opt=(calcfc,verytight,gdiis,maxcycles=900) freq iop(7/33=1,2/16=3) 

Gaussian input prepared by ASE

0 2
O                 5.1804518125        6.1796901829        8.3257147814
C                 6.3446997690        9.5617536843        9.2352655463
C                 6.0389085998        8.4770688566        8.2096653583
C                 7.5617194852       10.3858266235        8.9213370493
C                 6.1724701041        7.0677061262        8.6979777981
H                 5.4737210188       10.2253973405        9.3107487503
H                 6.4638083378        9.1012451704       10.2376183771
H                 6.7031342439        8.6306478814        7.3293714263
H                 5.0074666508        8.6139645632        7.8418232708
H                 7.2999573135       11.4670501609        8.8325131927
H                 8.3304829628       10.2901927596        9.7117460382
H                 8.0299743424       10.0799451919        7.9558702044
H                 7.1553633835        6.5905394815        8.6100464359
H                 4.3394009909        6.7075062643        8.2101461454



