%nprocshared=20
%mem=5GB
#p m062x/6-311+g(2df,2p) opt=(calcfc,verytight,gdiis,maxcycles=900) freq iop(7/33=1,2/16=3) 

Gaussian input prepared by ASE

0 2
O                -0.1389916800        4.1227668163        3.8634929516
C                 0.5274299053        3.9136253825        0.2855831183
C                 0.9883369369        3.7378522626        1.7273090557
C                -0.1285384907        2.6939823617       -0.2983352537
C                 0.3949951387        4.6885173199        2.7206732786
H                -0.1628843197        4.7643779433        0.2191681270
H                 1.4010346388        4.1975814429       -0.3366305630
H                 2.0970992712        3.8365239082        1.7519995891
H                 0.7678427768        2.7080767636        2.0572567441
H                -0.1253104155        1.8441733192        0.4250371405
H                -1.1823113260        2.8909442361       -0.5733958322
H                 0.3981180851        2.3515001809       -1.2204475554
H                 0.9867141482        5.5756535591        2.9743601663
H                -0.4442428260        3.2028465706        3.6187872316



