%nprocshared=20
%mem=5GB
#p m062x/6-311+g(2df,2p) opt=(calcfc,verytight,gdiis,maxcycles=900) freq iop(7/33=1,2/16=3) 

Gaussian input prepared by ASE

0 2
O                -1.7621440000       -0.7422340000        0.2872160000
C                 1.0701550000        0.2892660000        0.5894300000
C                -0.1062040000        1.0501250000       -0.0374120000
C                 1.7396000000       -0.6727270000       -0.3853430000
C                -1.1852330000        0.1632640000       -0.5546780000
H                 1.7957790000        1.0161470000        0.9568460000
H                 0.7370980000       -0.2556070000        1.4793570000
H                -0.5090200000        1.7539220000        0.7056370000
H                 0.2628110000        1.6523510000       -0.8697760000
H                 2.0923890000       -0.1373800000       -1.2678940000
H                 2.5938760000       -1.1703500000        0.0717000000
H                 1.0399660000       -1.4361510000       -0.7259270000
H                -1.8751190000        0.5031170000       -1.3125940000
H                -1.1505310000       -0.9677420000        0.9929410000



