%nprocshared=20
%mem=5GB
#p m062x/6-311+g(2df,2p) opt=(calcfc,verytight,gdiis,maxcycles=900) freq iop(7/33=1,2/16=3) 

Gaussian input prepared by ASE

0 2
O                 6.8134269516        9.2085703780        3.6646929916
C                 5.3426709464        6.0500901712        4.8989007351
C                 5.2441621573        7.5171904282        4.4991282819
C                 4.5151160696        5.6770675135        6.0967284868
C                 6.4950689294        8.3212808227        4.6759386467
H                 5.0318810282        5.4334170301        4.0457603811
H                 6.4023574746        5.7845171272        5.0925539308
H                 4.4175115074        7.9846968505        5.0803219485
H                 4.9464621877        7.5801590275        3.4383123630
H                 5.1549085590        5.2983494912        6.9290094971
H                 3.9356116974        6.5372020428        6.4830350543
H                 3.7863648543        4.8706631117        5.8445660450
H                 6.6569474733        8.7928131672        5.6521311047
H                 6.4586553344        8.8267903242        2.8116434619



