%nprocshared=20
%mem=5GB
#p m062x/6-311+g(2df,2p) opt=(calcfc,verytight,gdiis,maxcycles=900) freq iop(7/33=1,2/16=3) 

Gaussian input prepared by ASE

0 2
O                 7.9971275544        7.7442288668        7.1068025430
C                 4.7999322706        8.9708415348        6.3422077779
C                 6.2756414550        9.0968934747        5.9840200177
C                 4.5452684653        8.4191487781        7.7168225416
C                 7.2403723963        8.9011821698        7.1125510611
H                 4.3189318032        9.9532066891        6.2509835823
H                 4.3102904045        8.3297405078        5.5804949342
H                 6.4516011624       10.1050969070        5.5455412264
H                 6.5039284790        8.3731302769        5.1827880924
H                 5.5152013569        8.2113614344        8.2282011249
H                 3.9803948730        9.1388754924        8.3395590601
H                 3.9614948701        7.4688377521        7.6841172896
H                 7.8721170283        9.7553327911        7.3824113325
H                 7.4638100151        7.0420957590        6.6357463773



