%nprocshared=20
%mem=5GB
#p m062x/6-311+g(2df,2p) Opt=(CalcFC,ModRedun)

Gaussian Input Prepared from Scan Object

0 2
O     -1.1026472337     1.5378736813     0.1843583878
C     0.8151952141     -0.8884349858     -0.2616018325
C     -0.7070492706     -0.8735115063     -0.0875572317
C     1.5359776268     0.1042318922     0.5809047468
C     -1.3665284404     0.3972260684     -0.60659501
H     1.1790601075     -1.8967823818     -0.0184951526
H     1.0628999838     -0.7348825913     -1.315519918
H     -0.9617564543     -0.9953789631     0.9681761505
H     -1.1331597816     -1.7241896398     -0.6237455285
H     2.5024271834     0.4830259779     0.283136075
H     1.2428420683     0.2408692838     1.6130398283
H     -0.1508373234     1.6703359421     0.2264447332
H     -1.0625461543     0.5694668281     -1.6467118704
H     -2.4497027755     0.2793915423     -0.5991758686

B 10 4
B 8 3
B 1 5
B 9 3
B 5 3
B 13 5
B 7 2
B 11 4
B 14 5
B 6 2
B 3 2
B 12 4
B 2 4
D 9 3 5 13 S 36 10.0


