%nprocshared=20
%mem=5GB
#p m062x/6-311+g(2df,2p) Opt=(CalcFC,ModRedun)

Gaussian Input Prepared from Scan Object

0 1
O     0.8194377933     0.4167076518     -0.7095316465
C     -0.1283915166     0.1084259457     0.295928668
C     0.2804053896     0.6612759232     1.6551586052
C     -1.4492011889     0.6882334645     -0.1699428997
C     2.0635370599     -0.2132137453     -0.5524123505
H     -0.2149887556     -0.985340258     0.3658449452
H     0.4351903199     1.738658902     1.5816446724
H     1.1962003799     0.2023166525     2.0248919168
H     -0.5043728737     0.4728037161     2.3874293368
H     -2.2448928735     0.4450792654     0.5332497808
H     -1.7111685501     0.2942004633     -1.1501315365
H     -1.3691775447     1.7731222353     -0.2445285742
H     2.6367673653     0.2058744184     0.2792398947
H     1.9434289485     -1.2901895701     -0.3874925891
H     2.6229884946     -0.0583808568     -1.4721022316

B 1 5
B 2 1
B 6 2
B 3 2
B 15 5
B 11 4
B 4 2
B 9 3
B 10 4
B 14 5
B 8 3
B 12 4
B 13 5
B 7 3
D 2 1 5 13 S 36 10.0


