%nprocshared=20
%mem=5GB
#p m062x/6-311+g(2df,2p) Opt=(CalcFC,ModRedun)

Gaussian Input Prepared from Scan Object

0 2
O     1.5179379441     -25.4907163773     15.1034160554
C     4.3208854187     -26.9309679309     15.3700779733
C     2.561859019     -25.4814880475     14.1236634055
C     3.7780969201     -28.1829484821     14.6800465521
C     3.9135813571     -25.6486274313     14.7223912794
H     5.4107129833     -26.9804674995     15.4131653814
H     3.9962845392     -26.934649192     16.4207643373
H     2.6873952896     -28.215974216     14.6943176151
H     4.1390340193     -29.0828731392     15.1748862366
H     4.0926747438     -28.2185378834     13.6369532837
H     2.3677459418     -26.2586955491     13.3765632608
H     2.4783619158     -24.5182917239     13.6256913107
H     4.4911365038     -24.7616364156     14.9453454831
H     1.5536583339     -26.3219749802     15.5819204391

B 14 1
B 10 4
B 11 3
B 13 5
B 7 2
B 2 4
B 3 5
B 8 4
B 1 3
B 5 2
B 6 2
B 9 4
B 12 3
D 7 2 4 10 S 36 10.0


