%nprocshared=20
%mem=5GB
#p m062x/6-311+g(2df,2p) opt=(calcfc,verytight,gdiis,maxcycles=900) freq iop(7/33=1,2/16=3) 

Gaussian input prepared by ASE

0 2
O                 1.4270985896      -25.8394398249       14.8368655889
C                 4.3721186275      -26.9154472893       15.3293457401
C                 2.6329807634      -25.4277171125       14.0814980304
C                 3.6288006225      -28.1249096574       14.8308764599
C                 3.8781686425      -25.6167796720       14.8414238731
H                 5.4689174481      -27.0282586885       15.0717144395
H                 4.3655277017      -26.9275705788       16.4656129826
H                 2.5437234143      -28.0763024089       15.1102229242
H                 4.0600827729      -29.0546026319       15.2798576841
H                 3.6922811340      -28.2193100894       13.7167331733
H                 2.6351326232      -26.0305439865       13.1160265705
H                 2.4756225192      -24.3525163380       13.8096752937
H                 4.4415336279      -24.7109037160       15.1596255838
H                 1.6873764426      -26.7035468739       15.2197242694



