#p m062x/6-311+g(2df,2p) opt=(calcfc,verytight,gdiis,maxcycles=900) freq iop(7/33=1,2/16=3) 

Gaussian input prepared by ASE

0 1
C                 0.7731000000       -0.0098000000       -0.0105000000
C                -0.7531000000       -0.0257000000       -0.0530000000
H                 1.2234000000       -0.1493000000       -1.0015000000
H                 1.0445000000        1.0128000000        0.3551000000
H                 1.0524000000       -0.7817000000        0.7301000000
H                -1.1415000000        0.8406000000       -0.6126000000
H                -1.0495000000        0.0965000000        1.0212000000
H                -1.1494000000       -0.9834000000       -0.4289000000



