%nprocshared=20
%mem=5GB
#p m062x/6-311+g(2df,2p) opt=(calcfc,verytight,gdiis,maxcycles=900) freq iop(7/33=1,2/16=3) 

Gaussian input prepared by ASE

0 1
C                -0.7599000000       -0.0045000000       -0.0513000000
C                 0.7379000000       -0.0347000000        0.0054000000
H                -1.1346000000       -0.1844000000        0.9867000000
H                -1.0729000000        1.0195000000       -0.3235000000
H                -1.2009000000       -0.7879000000       -0.6786000000
H                 1.0532000000        0.8977000000        0.5403000000
H                 1.2262000000        0.0246000000       -0.9849000000
H                 1.1510000000       -0.9302000000        0.5060000000



