#p m062x/6-311+g(2df,2p) opt=(calcfc,verytight,gdiis,maxcycles=900) freq iop(7/33=1,2/16=3) 

Gaussian input prepared by ASE

0 1
O                 0.7844000000       -0.5729000000        0.7579000000
C                -0.4267000000       -0.0745000000        0.4652000000
C                -1.4790382218       -1.1699423080        0.5526461364
C                -0.6150062204        0.6264358991       -0.8350326764
C                 1.9076000000        0.0037000000        0.2815000000
H                -0.7111018084        0.6663738740        1.2568633718
H                -2.1637156391       -1.0302299750        1.4174741067
H                -0.9768857406       -2.1429326334        0.7123491491
H                -2.0793269205       -1.2465908918       -0.3652639806
H                -1.7202592893        0.7564407624       -0.9760980485
H                -0.2789040005        0.0771775641       -1.7245033724
H                -0.2172384415        1.6718955287       -0.8221758864
H                 2.5283000000       -0.7962000000       -0.1971000000
H                 1.8163000000        0.8127000000       -0.4400000000
H                 2.5123000000        0.4118000000        1.1307000000



