%nprocshared=20
%mem=5GB
#p m062x/6-311+g(2df,2p) opt=(calcfc,verytight,gdiis,maxcycles=900) freq iop(7/33=1,2/16=3) 

Gaussian input prepared by ASE

0 1
O                -0.6774419787        0.2350657216       -0.9619796615
C                 0.5063562533        0.6880861388       -0.4309329334
C                 1.2993288408       -0.3414633402        0.3026320438
C                -1.5772166715       -0.1872861274       -0.0103796048
H                 1.1064366949        1.0868074770       -1.2887798708
H                 0.3157885547        1.5633861869        0.2348284564
H                 2.2634053815       -0.5635322550       -0.2200666082
H                 0.7465171763       -1.2907825876        0.3962899321
H                 1.5593450212       -0.0017089495        1.3372786888
H                -2.5395108719        0.3787165115       -0.1130356548
H                -1.1940193608       -0.0317523315        1.0309740428
H                -1.8065774838       -1.2616900902       -0.1393825209



