%nprocshared=20
%mem=5GB
#p m062x/6-311+g(2df,2p) opt=(calcfc,verytight,gdiis,maxcycles=900) freq iop(7/33=1,2/16=3) 

Gaussian input prepared by ASE

0 2
O                -0.4228664598       -0.4341429093        1.1772239143
C                 0.6188166576       -0.4121173764        0.2334012515
C                -1.6351584696       -0.0488703845        0.5774565806
C                 0.9360235713        0.9422539431       -0.2908283671
H                 0.3878574301       -1.1202845240       -0.5974525301
H                 1.5153924035       -0.8383279964        0.7278711993
H                -1.5527455854        0.9448498858        0.1210569412
H                -1.9387469702       -0.7659568857       -0.1989246287
H                -2.4161911597       -0.0188574547        1.3684731803
H                 1.9327074526        1.1216639162       -0.7076352794
H                 0.4358691258        1.8069912783        0.1474695701



