%nprocshared=20
%mem=5GB
#p m062x/6-311+g(2df,2p) Opt=(CalcFC,ModRedun)

Gaussian Input Prepared from Scan Object

0 2
O     0.449200925     -0.5057539526     -0.0517029315
C     -0.5574128139     0.4724099584     0.0229573512
C     1.7369034094     0.0471795124     0.0096186097
C     -1.8836111666     -0.1776416403     -0.0148223791
H     -0.4307936842     1.058443085     0.951190858
H     -0.4508249327     1.1908000894     -0.8048726757
H     1.892355502     0.5870171718     0.9503847013
H     2.4497538039     -0.7709527694     -0.0534035995
H     1.9113887054     0.7391696491     -0.8217491626
H     -1.9655736757     -1.2257299772     0.2243942628
H     -2.7751710725     0.4155878734     -0.1390210347

B 11 4
B 8 3
B 1 2
B 5 2
B 3 1
B 10 4
B 2 4
B 6 2
B 7 3
B 9 3
D 2 1 3 9 S 36 -10.0


