%nprocshared=20
%mem=5GB
#p m062x/6-311+g(2df,2p) opt=(calcfc,verytight,gdiis,maxcycles=900) freq iop(7/33=1,2/16=3) 

Gaussian input prepared by ASE

0 2
O                 0.6100500000        0.5446940000       -0.3955510000
C                -0.6588590000        0.6060490000        0.2161320000
C                 1.4318700000       -0.4597820000        0.1456490000
C                -1.5098580000       -0.5741190000       -0.0849650000
H                -0.5498790000        0.7320790000        1.3017950000
H                -1.1184890000        1.5242520000       -0.1670440000
H                 1.0055080000       -1.4561210000       -0.0045090000
H                 2.3915010000       -0.4011910000       -0.3616240000
H                 1.5834760000       -0.3044160000        1.2198780000
H                -1.4738890000       -1.0093700000       -1.0729320000
H                -2.2975450000       -0.8756680000        0.5879480000



