%nprocshared=20
%mem=5GB
#p m062x/6-311+g(2df,2p) opt=(calcfc,verytight,gdiis,maxcycles=900) freq iop(7/33=1,2/16=3) 

Gaussian input prepared by ASE

0 2
O                -2.2033333006        3.0099452400       -8.2146400674
C                 0.2728661396        0.2077250750       -7.3250695297
C                -1.6099388845        1.7419503797       -8.3149655441
C                 0.4093734381       -0.4832312457       -8.6675677683
C                -0.4520757110        1.5188567303       -7.3903331928
H                 1.2681491423        0.3624589030       -6.8813658820
H                -0.2594244585       -0.4883837077       -6.6281708988
H                 0.9978063088       -1.4074561460       -8.5653627771
H                -0.5948391802       -0.7476093190       -9.0824518505
H                 0.9198995547        0.1791663339       -9.4074907580
H                -2.3829227982        0.9509853650       -8.1390917693
H                -1.3008249608        1.6141854047       -9.3584313093
H                -0.1568640923        2.3110351714       -6.6902274097
H                -2.3826076634        3.1705650033       -7.2650320670



