%nprocshared=20
%mem=5GB
#p m062x/6-311+g(2df,2p) opt=(calcfc,verytight,gdiis,maxcycles=900) freq iop(7/33=1,2/16=3) 

Gaussian input prepared by ASE

0 2
O                 2.4258670000        0.4229570000       -0.0733740000
C                -1.2355730000       -0.5341710000       -0.0635590000
C                 1.3532750000       -0.4935640000        0.0484830000
C                -2.4453020000        0.3962260000       -0.0651420000
C                 0.0389460000        0.1721340000        0.2343140000
H                -1.1513890000       -1.0448470000       -1.0282130000
H                -1.4013040000       -1.3355030000        0.6711210000
H                -2.5585710000        0.8804280000        0.9050460000
H                -3.3640530000       -0.1474660000       -0.2793160000
H                -2.3283140000        1.1774480000       -0.8159830000
H                 1.3101260000       -1.1675040000       -0.8170100000
H                 1.6072100000       -1.1167680000        0.9143550000
H                 0.0189760000        1.0593170000        0.8578160000
H                 2.1923000000        1.0674890000       -0.7454050000



