%nprocshared=20
%mem=5GB
#p m062x/6-311+g(2df,2p) Opt=(CalcFC,ModRedun)

Gaussian Input Prepared from Scan Object

0 2
O     2.4241436801     0.4262280475     -0.0731290538
C     -1.2367441752     -0.5370741518     -0.0543650983
C     1.3532703381     -0.4932014812     0.0407070656
C     -2.4431542573     0.3978712948     -0.0715474797
C     0.0389319582     0.1682795969     0.2409502262
H     -1.1504009809     -1.0585926842     -1.0128066008
H     -1.408784084     -1.3289619332     0.6889881346
H     -2.5570196597     0.8952930648     0.8918803436
H     -3.3634002534     -0.1452744318     -0.2807797746
H     -2.3212718368     1.1686697615     -0.8322845436
H     1.3072741703     -1.155419265     -0.8336078067
H     1.6115117659     -1.1278454192     0.8970331579
H     0.0211779005     1.0464906357     0.8771570089
H     2.1866594341     1.0797129651     -0.7350625794

B 8 4
B 7 2
B 2 4
B 14 1
B 13 5
B 10 4
B 6 2
B 9 4
B 11 3
B 12 3
B 3 5
B 1 3
B 5 2
D 7 2 5 13 S 36 10.0


