%nprocshared=20
%mem=5GB
#p m062x/6-311+g(2df,2p) opt=(calcfc,verytight,gdiis,maxcycles=900) freq iop(7/33=1,2/16=3) 

Gaussian input prepared by ASE

0 2
O                 1.1508885609       -1.1146669240       -0.9558225564
C                 2.1885513012       -0.5528994748        1.2229816782
C                 3.3937851598        0.1412696752        0.6084272402
C                 0.9532320498       -0.5026652694        0.3577149735
C                 3.8973846889       -0.4717573100       -0.6290663013
H                 1.9577492855       -0.0673430764        2.2082617774
H                 2.4447677512       -1.6205267266        1.4510949479
H                 4.2186858645        0.1410265843        1.3926147471
H                 3.1476381987        1.2220587034        0.4274780780
H                 0.6194849012        0.5666209829        0.2138243188
H                 0.1090457023       -1.0566039331        0.8473505033
H                 4.2344416697       -1.5322238867       -0.5947726748
H                 4.4375777936        0.1756830689       -1.3560296548
H                 2.0953923693       -0.9125959627       -1.1704389431



