%nprocshared=20
%mem=5GB
#p m062x/6-311+g(2df,2p) Opt=(CalcFC,ModRedun)

Gaussian Input Prepared from Scan Object

0 2
O     57.3914624493     -18.7586291749     -2.8727209821
C     54.2150706085     -16.7752728814     -3.2895802495
C     56.5182350943     -17.912390717     -3.6000685802
C     54.3635986751     -15.5607897263     -4.2231037768
C     55.5189894966     -17.2318399098     -2.7360767363
H     53.7523823173     -17.5910043702     -3.8536173816
H     53.5319772563     -16.5215621117     -2.4783929931
H     54.8100565061     -14.7204460213     -3.6918860531
H     53.3951898449     -15.2461683983     -4.6110987465
H     55.0059185841     -15.8011231356     -5.0705023396
H     57.1751307028     -17.1903119684     -4.0986475205
H     56.0022930916     -18.4670142226     -4.3952234589
H     55.8747067001     -16.8337306678     -1.7932851901
H     56.8577370592     -19.3219190795     -2.3073647238

B 8 4
B 13 5
B 14 1
B 10 4
B 2 4
B 6 2
B 9 4
B 1 3
B 11 3
B 7 2
B 12 3
B 3 5
B 5 2
D 14 3 5 13 S 72 10.0


