#p m062x/6-311+g(2df,2p) opt=(calcfc,verytight,gdiis,maxcycles=900) freq iop(7/33=1,2/16=3) 

Gaussian input prepared by ASE

0 2
O                -0.3934228744        9.4483632355        4.0704585075
C                -3.9380383630       10.4831538148        3.9924434101
C                -1.5589626517        9.9728216416        4.6330242973
C                -4.2853062040       10.2421586732        5.4443357575
C                -2.6167224905        9.9429299289        3.5945547219
H                -3.9503330620       11.5788343978        3.8188347973
H                -4.7049322137       10.0055133192        3.3469225130
H                -3.5436057016       10.7383751047        6.1058043871
H                -5.2668939037       10.7122445420        5.6817655021
H                -4.3663599118        9.1539451483        5.6598026011
H                -1.8293450070        9.3562626331        5.5128137614
H                -1.3040033283       10.9898997163        4.9938896231
H                -2.3084284629       10.0749239139        2.5641197698
H                 0.2839856029        9.4873839434        4.7963817949



