%nprocshared=20
%mem=5GB
#p m062x/6-311+g(2df,2p) opt=(calcfc,verytight,gdiis,maxcycles=900) freq iop(7/33=1,2/16=3) 

Gaussian input prepared by ASE

0 2
O                 0.3731029802       -0.0347536556       -0.6113818380
C                 2.7238791890        0.4401812047       -0.8582511484
C                 1.6545914352       -0.4834041878       -0.3505328976
C                 3.5479356618        2.8095371487        0.0484331090
C                 2.4646818917        1.8942837176       -0.5134949260
H                 3.7088896056        0.1286187185       -0.4653796217
H                 2.7921921499        0.3259752867       -1.9554786579
H                 1.7896107544       -0.6502970683        0.7395515854
H                 1.7666965869       -1.4856393897       -0.8362587925
H                 3.7015634914        2.6170798120        1.1232258674
H                 4.5210017167        2.6424575993       -0.4656937790
H                 3.2528463600        3.8734613132       -0.0648197327
H                 1.4205666730        2.1906869546       -0.3476418243
H                 0.3881582418        0.9500471680       -0.5472179316



