%nprocshared=20
%mem=5GB
#p m062x/6-311+g(2df,2p) opt=(calcfc,verytight,gdiis,maxcycles=900) freq iop(7/33=1,2/16=3) 

Gaussian input prepared by ASE

0 2
O                 2.7426892332        1.0327429887       -0.2388280645
C                 1.9580172080       -0.8423088640        0.9955296237
C                 1.8360089369       -0.0109882531       -0.2487308489
C                 0.9475343183       -2.9339336818       -0.3026331318
C                 1.1211052948       -2.1069184933        0.9673313103
H                 3.0215824102       -1.1073158099        1.1378852321
H                 1.6739685866       -0.2418111159        1.8788963059
H                 0.7993531979        0.3791163753       -0.3355115360
H                 1.9964622889       -0.6548373301       -1.1502216685
H                 0.0277215876       -2.6540427786       -0.8424723973
H                 1.8026953381       -2.7809112728       -0.9986096777
H                 0.8705512450       -4.0122289660       -0.0512541021
H                 0.9000544438       -2.5942567429        1.9260683294
H                 2.6068675901        1.5529050869       -1.0665721088



