%nprocshared=20
%mem=5GB
#p m062x/6-311+g(2df,2p) opt=(calcfc,verytight,gdiis,maxcycles=900) freq iop(7/33=1,2/16=3) 

Gaussian input prepared by ASE

0 2
O                -1.8218450000       -0.8713360000        0.2008730000
C                -0.0485280000        0.7994250000        0.2482100000
C                -1.4708010000        0.4457040000       -0.1689580000
C                 2.3004690000       -0.2983850000        0.1468360000
C                 0.9669410000       -0.0347630000       -0.4543260000
H                 0.0481110000        0.6754400000        1.3302720000
H                 0.1177000000        1.8667330000        0.0405430000
H                -2.1875610000        1.1003460000        0.3243680000
H                -1.5802270000        0.5856540000       -1.2511400000
H                 2.8427870000       -1.0763520000       -0.3880790000
H                 2.9316290000        0.6001530000        0.1378150000
H                 2.2065730000       -0.5988040000        1.1926170000
H                 0.8351200000       -0.1921120000       -1.5192440000
H                -1.1278650000       -1.4622630000       -0.1047000000



