%nprocshared=20
%mem=5GB
#p m062x/6-311+g(2df,2p) opt=(calcfc,verytight,gdiis,maxcycles=900) freq iop(7/33=1,2/16=3) 

Gaussian input prepared by ASE

0 2
O                 1.2504422841       -1.0601103181        0.5200704511
C                 2.5963780421        0.4083301089       -0.8521798071
C                 1.2328419654       -0.0712069594       -0.4460053772
C                 3.9125386107        0.1827273609        1.4333263344
C                 3.3928772770        1.0321907647        0.2777941134
H                 3.1567727748       -0.4444290207       -1.2769436831
H                 2.4739919155        1.1575923026       -1.6554516547
H                 0.7158844398       -0.4855789038       -1.3378677199
H                 0.6200241110        0.7999775261       -0.1018186843
H                 3.0881922780       -0.1259648315        2.0973918915
H                 4.4091886826       -0.7462242856        1.0734831401
H                 4.6360785721        0.7645693925        2.0414285499
H                 3.1892340776        2.0865289811        0.5067899489
H                 1.9504835268       -0.8237490991        1.1744800802



