%nprocshared=20
%mem=5GB
#p m062x/6-311+g(2df,2p) opt=(calcfc,verytight,gdiis,maxcycles=900) freq iop(7/33=1,2/16=3) 

Gaussian input prepared by ASE

0 1
O                 0.7471557142        0.2511835341       -0.6774214134
C                -0.2080520929       -0.0003337801        0.2903601405
C                -0.8061597446       -1.3738628845        0.1567530808
C                 0.3057517450        0.2562091434        1.6935544409
C                 1.8559480820       -0.6023880995       -0.5650138900
H                -1.0067320412        0.7285961021        0.0963757934
H                -1.5018288084       -1.5968841317        1.0020200723
H                -1.3668799475       -1.4634582885       -0.7810225094
H                -0.0086523327       -2.1445325100        0.1574358794
H                -0.5064276903        0.1698602847        2.4242107413
H                 1.1016467182       -0.4745564555        1.9813715373
H                 0.7341678530        1.2657513836        1.7685969863
H                 1.5287067076       -1.6607431866       -0.4747484343
H                 2.4652497785       -0.3508690465        0.3167455038
H                 2.4693538225       -0.4846225587       -1.4705342790



