%nprocshared=20
%mem=5GB
#p m062x/6-311+g(2df,2p) opt=(calcfc,verytight,gdiis,maxcycles=900) freq iop(7/33=1,2/16=3) 

Gaussian input prepared by ASE

0 1
O                 0.6791730000       -0.6329000000       -0.3088550000
C                -0.4218450000       -0.0096850000        0.3265440000
C                -0.5820950000        1.4429110000       -0.1030560000
C                -1.6426450000       -0.8358500000       -0.0267980000
C                 1.9331480000       -0.1263490000        0.0656120000
H                -0.2596360000       -0.0455980000        1.4133330000
H                -0.6763050000        1.4963000000       -1.1885950000
H                 0.2641430000        2.0559810000        0.2036260000
H                -1.4799050000        1.8688010000        0.3443500000
H                -2.5287450000       -0.4445940000        0.4716750000
H                -1.4978930000       -1.8724550000        0.2717910000
H                -1.8073520000       -0.8071330000       -1.1042930000
H                 2.1141270000        0.8719490000       -0.3424600000
H                 2.0320610000       -0.0821050000        1.1563730000
H                 2.6867420000       -0.8041040000       -0.3287680000



