%nprocshared=20
%mem=5GB
#p m062x/6-311+g(2df,2p) opt=(calcfc,verytight,gdiis,maxcycles=900) freq iop(7/33=1,2/16=3) 

Gaussian input prepared by ASE

0 2
O                 1.6393955054        0.0033034337        0.8054416805
O                 0.6250356198       -1.6512561930       -0.4747572639
C                -0.4223493801       -0.9435112946        1.6142616923
C                 0.0038667399       -1.5873267861        2.9026020401
C                 0.6220150560       -0.9306910256        0.5694118919
C                 2.6321700042        0.0328560598       -0.2189540863
H                -0.7247599907        0.1049023799        1.8178650312
H                -1.3315407006       -1.4632238467        1.2189328343
H                -0.4912470897       -1.0870858111        3.7688634744
H                 1.1105673686       -1.5140008680        3.0499086874
H                -0.2704721092       -2.6502623918        2.9201230016
H                 2.2597990038       -0.3109206341       -1.1912480556
H                 3.1792769079        0.9810303025       -0.1819567708



