%nprocshared=20
%mem=5GB
#p m062x/6-311+g(2df,2p) opt=(calcfc,verytight,gdiis,maxcycles=900) freq iop(7/33=1,2/16=3) 

Gaussian input prepared by ASE

0 2
O                 1.6483869866        0.0107551054        0.8049015637
O                 0.6266194287       -1.6350920814       -0.4772417616
C                -0.4168616108       -0.9333543976        1.6155522739
C                 0.0221072467       -1.5693504158        2.9034943638
C                 0.6255527192       -0.9172459229        0.5688023412
C                 2.6344877609        0.0403204232       -0.2259196646
H                -0.7314425466        0.1119811301        1.8165254049
H                -1.3197952690       -1.4676031681        1.2252908741
H                 1.1248416234       -1.4778140057        3.0497324918
H                -0.2304706290       -2.6592569508        2.9165473973
H                -0.4771584481       -1.1009401176        3.7618220683
H                 2.2625146282       -0.3183004617       -1.1929900806
H                 3.1836429958        0.9874739072       -0.1933932804



