%nprocshared=20
%mem=5GB
#p m062x/6-311+g(2df,2p) opt=(calcfc,verytight,gdiis,maxcycles=900) freq iop(7/33=1,2/16=3) 

Gaussian input prepared by ASE

0 2
O                 1.4116631847        0.0588839130       -0.5445614214
O                 0.7151406567       -1.1792148382        1.2940856358
C                -0.8980321531       -0.6396221270       -0.4530242653
C                -1.7644334753        0.5105095607       -0.0257945026
C                 0.4348153013       -0.6323566628        0.1841863877
C                 2.6866748384        0.0760211779        0.0956829436
H                -0.7758424259       -0.6285721683       -1.5562129613
H                -1.4135765654       -1.6007302506       -0.2010321350
H                -2.7264046231        0.1448434778        0.4062789132
H                -2.0158285540        1.1708372790       -0.8933370311
H                -1.2705324859        1.1318446873        0.7327602833
H                 3.3149266670        0.8636697469       -0.3368763144
H                 2.6265526517        0.0000137129        1.1867087673



