%nprocshared=20
%mem=5GB
#p m062x/6-311+g(2df,2p) Opt=(CalcFC,ModRedun)

Gaussian Input Prepared from Scan Object

0 2
O     1.115393129     -0.7044682015     0.75012521
O     1.1144774094     0.0158865551     -1.3778859459
C     -0.9320363478     -0.8243026957     -0.4137551463
C     -1.103313346     -2.3432157135     -0.3290471742
C     0.5194649399     -0.4401156385     -0.4467241952
C     2.4390461537     -0.4265849797     0.8840457157
H     -1.3940339836     -0.349277186     0.4521098083
H     -1.3889353986     -0.4279881769     -1.3167341936
H     -2.1601733334     -2.6020058574     -0.3234243199
H     -0.6492283074     -2.7329565516     0.5797651398
H     -0.6383658984     -2.8320641479     -1.1841255642
H     2.994482637     -0.1397765553     0.0090995096
H     2.8606266927     -0.7521406505     1.8166053404

B 9 4
B 12 6
B 13 6
B 1 6
B 7 3
B 3 5
B 10 4
B 8 3
B 11 4
B 2 5
B 5 1
B 4 3
D 5 1 6 12 S 36 10.0


