%nprocshared=20
%mem=5GB
#p m062x/6-311+g(2df,2p) opt=(calcfc,verytight,gdiis,maxcycles=900) freq iop(7/33=1,2/16=3) 

Gaussian input prepared by ASE

0 2
O                 0.8638251214       -0.9033020176       -0.2891631284
C                -0.4615841766        1.1514723967        0.3094198292
C                -1.5691463194       -1.1509581308       -0.1371604054
C                 1.9714507295        0.0218774506       -0.1522810336
C                -0.3879323755       -0.3009238303        0.0871135531
H                -1.3357997883        1.4145390588        0.9622478825
H                 0.4716109054        1.5415709268        0.8021118715
H                -0.5935335850        1.7449304163       -0.6540826712
H                -2.0315629964       -1.5253895115        0.8298584884
H                -2.3924516610       -0.5993781133       -0.6718902616
H                -1.3040501836       -2.0554272587       -0.7396815640
H                 1.9557718476        0.5145164235        0.8595540303
H                 2.9106552929       -0.5746847896       -0.2696068194
H                 1.9244372713        0.8148733309       -0.9516678920



