%nprocshared=20
%mem=5GB
#p m062x/6-311+g(2df,2p) Opt=(CalcFC,ModRedun)

Gaussian Input Prepared from Scan Object

0 2
O     0.775121429     -0.6995345412     -0.4905723457
C     -0.537367541     1.1827256709     0.3949296556
C     -1.5077608575     -1.1509881371     -0.108147997
C     1.9775065764     -0.0090314773     -0.2358463253
C     -0.3366101453     -0.2826054765     0.1872115096
H     -1.4492911479     1.3469347483     0.9654868995
H     0.2843961736     1.6508038511     0.9367655943
H     -0.6447748008     1.7129468213     -0.562757809
H     -2.3126635162     -0.9663852663     0.601452788
H     -1.9017858117     -0.9640135382     -1.1164925731
H     -1.2255125761     -2.2015968544     -0.0565962309
H     2.1867999932     0.022825676     0.8365129262
H     2.7667054038     -0.5587545245     -0.74111424
H     1.9469269027     1.0103893997     -0.6260599726

B 7 2
B 6 2
B 9 3
B 12 4
B 8 2
B 14 4
B 1 4
B 11 3
B 3 5
B 2 5
B 10 3
B 5 1
B 13 4
D 5 1 4 13 S 72 10.0


