#p m062x/6-311+g(2df,2p) opt=(calcfc,verytight,gdiis,maxcycles=900) freq iop(7/33=1,2/16=3) 

Gaussian input prepared by ASE

0 2
O                -0.7221000000       -0.6001000000        0.8133000000
C                 1.4075000000       -0.9459000000       -0.3126000000
C                 0.5883000000        1.3719000000        0.2722000000
C                -1.8989000000       -0.4330000000        0.0718000000
C                 0.3151000000       -0.0674000000        0.1259000000
H                 1.3844000000       -1.8899000000        0.2838000000
H                 2.4019000000       -0.4501000000       -0.2564000000
H                 1.2152000000       -1.2328000000       -1.3782000000
H                -0.1368000000        1.8622000000        0.9408000000
H                 0.4648000000        1.8438000000       -0.7364000000
H                 1.6462000000        1.5976000000        0.5582000000
H                -2.1397915951        0.6558137421       -0.0205089070
H                -2.7452026526       -0.8713141256        0.6398971021
H                -1.8364956821       -0.9151212590       -0.9299952849



