%nprocshared=20
%mem=5GB
#p m062x/6-311+g(2df,2p) opt=(calcfc,verytight,gdiis,maxcycles=900) freq iop(7/33=1,2/16=3) 

Gaussian input prepared by ASE

0 2
O                 0.7541350000       -0.6650180000        0.2827840000
O                 0.4092050000        1.4687350000       -0.2959390000
C                -1.4412520000        0.1607170000        0.5476870000
C                 2.1106950000       -0.5271330000       -0.1343980000
C                -0.0045240000        0.4297580000        0.1352360000
C                -2.1200870000       -0.6852790000       -0.4735240000
H                -1.4235210000       -0.3436740000        1.5148570000
H                -1.9263350000        1.1280320000        0.6510410000
H                 2.6065270000        0.2508590000        0.4425610000
H                 2.1559050000       -0.2666830000       -1.1899990000
H                 2.5769280000       -1.4903820000        0.0425900000
H                -2.6115320000       -0.2257050000       -1.3162440000
H                -1.9536800000       -1.7505620000       -0.4895740000



