%nprocshared=20
%mem=5GB
#p m062x/6-311+g(2df,2p) Opt=(CalcFC,ModRedun)

Gaussian Input Prepared from Scan Object

0 1
O     1.824782     0.305438     -0.763853
O     -1.951069     -0.539931     -0.468023
O     -0.893741     1.266432     0.321768
N     1.506198     -0.197069     0.527877
C     0.226863     -0.858389     0.417876
C     -0.905584     0.093728     0.083984
H     -0.008483     -1.320512     1.379665
H     0.283713     -1.648418     -0.327083
H     1.375644     0.643081     1.086416
H     2.68576     -0.075786     -0.949425
H     -2.647462     0.113572     -0.615007

B 8 5
B 6 5
B 4 1
B 3 6
B 10 1
B 7 5
B 11 2
B 2 6
B 9 4
B 5 4
D 9 4 5 7 S 72 10.0


