#p m062x/6-311+g(2df,2p) opt=(calcfc,verytight,gdiis,maxcycles=900) freq iop(7/33=1,2/16=3) 

Gaussian input prepared by ASE

0 1
O               -66.6357214016      -37.7589024691      -95.5213210915
O               -70.3546037253      -38.3002654462      -96.6061792675
O               -70.7764164344      -36.0881178614      -96.6311117984
N               -67.6996839130      -37.7050226573      -96.3380864068
C               -68.6144766428      -36.6400446754      -96.0615855574
C               -69.8962648863      -36.9952081066      -96.7537934568
H               -68.2926798329      -35.6535935701      -96.4623113613
H               -68.8346252497      -36.4971130909      -94.9788598982
H               -68.1255154316      -38.6301405969      -96.4904110785
H               -66.9837712514      -38.1252635290      -94.6568864809
H               -71.3410802482      -38.5458583574      -96.6236873104



