%nprocshared=20
%mem=5GB
#p m062x/6-311+g(2df,2p) opt=(calcfc,verytight,gdiis,maxcycles=900) freq iop(7/33=1,2/16=3) 

Gaussian input prepared by ASE

0 2
O                -1.0605628158       -0.5947720533        0.8459499796
C                 0.2018795125        0.0187145054        0.8141196504
C                 0.1502227317        1.5113930591        0.6980625417
C                -1.8286451797       -0.3039061871       -0.2937489720
H                 0.7181276647       -0.2711816617        1.7377530396
H                 0.7927329919       -0.4009683835       -0.0389893336
H                 1.1646023795        1.9165491079        0.4578631116
H                -0.5505096026        1.8099647019       -0.1173206687
H                -0.1989211521        1.9775327502        1.6334466749
H                -1.6408098881        0.7326315051       -0.6741625308
H                -2.9022708387       -0.5313829666       -0.0736169225



