%nprocshared=20
%mem=5GB
#p m062x/6-311+g(2df,2p) Opt=(CalcFC,ModRedun)

Gaussian Input Prepared from Scan Object

0 1
O     0.8095251545     -0.5312133546     -0.6913222288
C     -0.2039297047     -0.899128041     0.2166358195
C     -1.4324919709     -0.0057391015     0.1491019011
C     1.4358254311     0.6861472775     -0.3813078069
H     -0.4716646622     -1.9223658688     -0.0440939295
H     0.2023840215     -0.9090124909     1.2363695964
H     -2.2213901513     -0.4110115529     0.7823978777
H     -1.8027710562     0.0461606048     -0.8743523118
H     -1.2190952062     1.0056404635     0.4927055422
H     0.7738467985     1.5423788358     -0.5387487676
H     1.7818637764     0.6975164458     0.6588640698
H     2.2951484038     0.7854625805     -1.0402066853

B 12 4
B 4 1
B 2 3
B 1 2
B 11 4
B 8 3
B 10 4
B 7 3
B 5 2
B 6 2
B 9 3
D 6 2 3 8 S 36 10.0


