%nprocshared=20
%mem=5GB
#p m062x/6-311+g(2df,2p) opt=(calcfc,verytight,gdiis,maxcycles=900) freq iop(7/33=1,2/16=3) 

Gaussian input prepared by ASE

0 1
O                 0.5035080000        0.4981730000       -0.0274610000
C                -0.4882080000       -0.5003570000       -0.0150220000
C                -1.8448220000        0.1652370000        0.0162160000
C                 1.8004720000       -0.0327690000        0.0170630000
H                -0.3861580000       -1.1331780000       -0.9065700000
H                -0.3496410000       -1.1491870000        0.8597450000
H                -2.6366350000       -0.5827860000        0.0187620000
H                -1.9709320000        0.8034270000       -0.8569310000
H                -1.9426770000        0.7806800000        0.9090240000
H                 1.9594550000       -0.6140810000        0.9321960000
H                 1.9938280000       -0.6822150000       -0.8442690000
H                 2.5000430000        0.7992920000       -0.0018060000



