%nprocshared=20
%mem=5GB
#p m062x/6-311+g(2df,2p) opt=(calcfc,verytight,gdiis,maxcycles=900) freq iop(7/33=1,2/16=3) 

Gaussian input prepared by ASE

0 1
O                 0.8949990949       -0.6055054675       -0.6643769788
C                -0.2308749441       -0.9448640252        0.2134075298
C                -1.3864389223        0.0061406443        0.0712870302
C                 1.4255364256        0.6979977777       -0.3051692135
H                -0.5287139816       -1.9874691975       -0.0718599256
H                 0.1314916681       -0.9734447626        1.2819265880
H                -2.1058512585       -0.1079791685        0.9201873107
H                -1.9411263302       -0.1700916859       -0.8843395894
H                -1.0113194066        1.0648514651        0.0688212157
H                 0.5842340278        1.4115773944       -0.0677287696
H                 2.1094545774        0.6178682850        0.5881132522
H                 2.0058598838        1.0757545386       -1.1842253730



