%nprocshared=20
%mem=5GB
#p m062x/6-311+g(2df,2p) opt=(calcfc,verytight,gdiis,maxcycles=900) freq iop(7/33=1,2/16=3) 

Gaussian input prepared by ASE

0 2
O                -0.9489907608       -0.3772772533        0.5441053337
C                -0.5117246633       -0.0025919629       -1.8848767294
C                 1.1844244071       -1.1825197425       -0.2719026026
C                -2.1771453589        0.2152951071        0.2224408952
C                -0.0189055137       -0.3163211059       -0.4770937416
H                -1.1364951944       -0.8257027868       -2.2978132925
H                -1.1282772475        0.9048179739       -1.8967332698
H                 0.3542721560        0.1536945811       -2.5791887882
H                 1.3157893535       -1.9150573343       -1.1014441551
H                 1.1005105675       -1.7475050783        0.6698549023
H                 2.1222817273       -0.5997721381       -0.2287553361
H                -2.7482416610       -0.4099681295       -0.5072389172
H                -2.7638471871        0.2997373873        1.1449451424
H                -2.0340901219        1.2284643924       -0.2168596608



