%nprocshared=20
%mem=5GB
#p m062x/6-311+g(2df,2p) opt=(calcfc,verytight,gdiis,maxcycles=900) freq iop(7/33=1,2/16=3) 

Gaussian input prepared by ASE

0 2
O                -0.8714843938        0.5707064558        0.4764541959
C                 1.3140830772        1.1623995629       -0.4509425986
C                -0.5389906782        0.0493596217       -1.9351757307
C                -2.1430596515        0.0276637567        0.2502358924
C                -0.0004221391        0.4024512290       -0.5839997150
H                 1.2249519814        2.2208813680       -0.7826626102
H                 1.6548666999        1.1659227209        0.5919018624
H                 2.1088968539        0.6864058981       -1.0819309513
H                 0.0631568234        0.5287557568       -2.7411564948
H                -1.5875403796        0.3643740476       -2.0554528905
H                -0.5143189837       -1.0394690623       -2.1219274761
H                -2.0813087710       -0.9967330752       -0.1928619406
H                -2.6596865964       -0.0220624200        1.2161486872
H                -2.7311936748        0.6684768689       -0.4450472916



