%nprocshared=20
%mem=5GB
#p m062x/6-311+g(2df,2p) opt=(calcfc,verytight,gdiis,maxcycles=900) freq iop(7/33=1,2/16=3) 

Gaussian input prepared by ASE

0 2
O                -0.6223800000       -0.7476560000        0.1575030000
C                 0.4184130000        1.4779240000        0.0426690000
C                 1.7297320000       -0.7397990000       -0.0131360000
C                -1.8977920000       -0.1859260000       -0.0550890000
C                 0.4577100000        0.0062440000       -0.2088410000
H                 1.3367210000        1.9333050000       -0.3226290000
H                -0.4184570000        1.9705890000       -0.4522140000
H                 0.3424050000        1.6996490000        1.1173310000
H                 2.5524780000       -0.2375470000       -0.5194070000
H                 1.9898190000       -0.8171950000        1.0514480000
H                 1.6409290000       -1.7528610000       -0.4029050000
H                -2.0089810000        0.1427720000       -1.0916060000
H                -2.6225430000       -0.9675200000        0.1550810000
H                -2.0817010000        0.6594030000        0.6112580000



