#p m062x/6-311+g(2df,2p) opt=(calcfc,verytight,gdiis,maxcycles=900) freq iop(7/33=1,2/16=3) 

Gaussian input prepared by ASE

0 1
O                 0.6094000000        0.2242000000       -1.0187000000
C                -0.3315000000       -0.6717000000       -0.5008000000
C                -1.3496819266       -0.9148522789       -1.5804323835
C                 1.5268000000        0.4591000000       -0.0101000000
H                -0.7519845960       -0.2211064016        0.4157068322
H                 0.1357046089       -1.6343033636       -0.1856914983
H                -1.3516518937       -0.0736085246       -2.3118266925
H                -2.3475787355       -1.1514179502       -1.1824834019
H                -1.0198940214       -1.8199073982       -2.1509233111
H                 0.9914000000        0.4518000000        0.9592000000
H                 2.2321000000       -0.4069000000        0.0394000000
H                 2.1429000000        1.3601000000       -0.1668000000



