%nprocshared=20
%mem=5GB
#p m062x/6-311+g(2df,2p) opt=(calcfc,verytight,gdiis,maxcycles=900) freq iop(7/33=1,2/16=3) 

Gaussian input prepared by ASE

0 1
O                 1.2887306900        0.5432986780        0.3785309821
O                 1.1182551481       -1.7535180511        0.0476484692
C                -0.6871220407       -0.5802839031        1.2302353555
C                -0.5714944486        0.0282015764        2.6119533518
C                 2.5082512748        0.4247316798       -0.3496451506
C                 0.6242603950       -0.6810650982        0.5126499613
H                -1.3661038434        0.0379064665        0.6267784651
H                -1.1495193514       -1.5939085175        1.3050686912
H                -1.5792630309        0.1761377326        3.0627327636
H                -0.0546439883        1.0177023242        2.5680845490
H                 0.0177589384       -0.6397997965        3.2895850525
H                 3.2026262247        1.1990737861        0.0225414981
H                 2.3206746438        0.5974704831       -1.4371985163
H                 2.9491917056       -0.5950706661       -0.2055856775



